/*---------------------------------------------------------------------------*\
| =========                 |                                                 |
| \\      /  F ield         | OpenFOAM: The Open Source CFD Toolbox           |
|  \\    /   O peration     | Version:  v2012                                 |
|   \\  /    A nd           | Website:  www.openfoam.com                      |
|    \\/     M anipulation  |                                                 |
\*---------------------------------------------------------------------------*/
Build  : 308af39136-20210426 OPENFOAM=2012 patch=210414
Arch   : "LSB;label=32;scalar=64"
Exec   : interFoam
Date   : May 22 2022
Time   : 09:30:24
Host   : workhorse
PID    : 7437
I/O    : uncollated
Case   : /home/prabhu/OpenFOAM/OpenFOAM-v2012/run/damBreak/damBreak
nProcs : 1
trapFpe: Floating point exception trapping enabled (FOAM_SIGFPE).
fileModificationChecking : Monitoring run-time modified files using timeStampMaster (fileModificationSkew 5, maxFileModificationPolls 20)
allowSystemOperations : Allowing user-supplied system call operations

// * * * * * * * * * * * * * * * * * * * * * * * * * * * * * * * * * * * * * //
Create time

Create mesh for time = 0


PIMPLE: Operating solver in PISO mode

Reading field p_rgh

Reading field U

Reading/calculating face flux field phi

Reading transportProperties

Selecting incompressible transport model Newtonian
Selecting incompressible transport model Newtonian
Selecting turbulence model type RAS
Selecting RAS turbulence model kEpsilon
RAS
{
    RASModel        kEpsilon;
    turbulence      on;
    printCoeffs     on;
    Cmu             0.09;
    C1              1.44;
    C2              1.92;
    C3              0;
    sigmak          1;
    sigmaEps        1.3;
}


Reading g

Reading hRef
Calculating field g.h

No MRF models present

No finite volume options present
DICPCG:  Solving for pcorr, Initial residual = 0, Final residual = 0, No Iterations 0
time step continuity errors : sum local = 0, global = 0, cumulative = 0
Courant Number mean: 0 max: 0

Starting time loop

Courant Number mean: 0 max: 0
Interface Courant Number mean: 0 max: 0
deltaT = 0.00119048
Time = 0.00119048

PIMPLE: iteration 1
smoothSolver:  Solving for alpha.water, Initial residual = 0, Final residual = 0, No Iterations 0
Phase-1 volume fraction = 0.130194  Min(alpha.water) = 0  Max(alpha.water) = 1
MULES: Correcting alpha.water
MULES: Correcting alpha.water
Phase-1 volume fraction = 0.130194  Min(alpha.water) = 0  Max(alpha.water) = 1
DICPCG:  Solving for p_rgh, Initial residual = 1, Final residual = 0.00312169, No Iterations 1
time step continuity errors : sum local = 0.000863663, global = -1.26728e-12, cumulative = -1.26728e-12
DICPCG:  Solving for p_rgh, Initial residual = 0.00146342, Final residual = 6.18289e-05, No Iterations 13
time step continuity errors : sum local = 3.6494e-05, global = -1.00159e-05, cumulative = -1.00159e-05
DICPCG:  Solving for p_rgh, Initial residual = 5.08541e-05, Final residual = 8.19126e-08, No Iterations 48
time step continuity errors : sum local = 5.88485e-08, global = 1.01685e-08, cumulative = -1.00057e-05
smoothSolver:  Solving for epsilon, Initial residual = 0.0010031, Final residual = 3.99945e-13, No Iterations 1
smoothSolver:  Solving for k, Initial residual = 1, Final residual = 5.86189e-10, No Iterations 1
ExecutionTime = 0.05 s  ClockTime = 0 s

Courant Number mean: 0.00124881 max: 0.107249
Interface Courant Number mean: 0 max: 0
deltaT = 0.00143557
Time = 0.00262605

PIMPLE: iteration 1
smoothSolver:  Solving for alpha.water, Initial residual = 0.000290383, Final residual = 2.11982e-12, No Iterations 2
Phase-1 volume fraction = 0.130194  Min(alpha.water) = 0  Max(alpha.water) = 1
MULES: Correcting alpha.water
MULES: Correcting alpha.water
Phase-1 volume fraction = 0.130194  Min(alpha.water) = -4.60047e-10  Max(alpha.water) = 1
DICPCG:  Solving for p_rgh, Initial residual = 0.00351552, Final residual = 0.000170686, No Iterations 11
time step continuity errors : sum local = 3.65136e-05, global = 4.20793e-06, cumulative = -5.79776e-06
DICPCG:  Solving for p_rgh, Initial residual = 0.000863692, Final residual = 3.3055e-05, No Iterations 30
time step continuity errors : sum local = 7.23435e-06, global = 3.99501e-07, cumulative = -5.39826e-06
DICPCG:  Solving for p_rgh, Initial residual = 0.000211056, Final residual = 9.96994e-08, No Iterations 48
time step continuity errors : sum local = 2.15087e-08, global = 9.41984e-11, cumulative = -5.39816e-06
smoothSolver:  Solving for epsilon, Initial residual = 0.0199792, Final residual = 9.31717e-07, No Iterations 3
smoothSolver:  Solving for k, Initial residual = 0.426123, Final residual = 1.79491e-07, No Iterations 5
ExecutionTime = 0.06 s  ClockTime = 0 s

Courant Number mean: 0.00161231 max: 0.0330914
Interface Courant Number mean: 2.88988e-05 max: 0.0317877
deltaT = 0.00169193
Time = 0.00431798

PIMPLE: iteration 1
smoothSolver:  Solving for alpha.water, Initial residual = 0.000144076, Final residual = 7.15333e-10, No Iterations 1
Phase-1 volume fraction = 0.130194  Min(alpha.water) = 0  Max(alpha.water) = 1
MULES: Correcting alpha.water
MULES: Correcting alpha.water
Phase-1 volume fraction = 0.130194  Min(alpha.water) = -9.15102e-11  Max(alpha.water) = 1
DICPCG:  Solving for p_rgh, Initial residual = 0.00184275, Final residual = 8.83482e-05, No Iterations 11
time step continuity errors : sum local = 2.51743e-05, global = -2.8809e-06, cumulative = -8.27907e-06
DICPCG:  Solving for p_rgh, Initial residual = 0.000156109, Final residual = 6.06081e-06, No Iterations 33
time step continuity errors : sum local = 1.74552e-06, global = -1.52056e-07, cumulative = -8.43112e-06
DICPCG:  Solving for p_rgh, Initial residual = 3.84689e-05, Final residual = 8.47807e-08, No Iterations 46
time step continuity errors : sum local = 2.43063e-08, global = -6.64844e-10, cumulative = -8.43179e-06
smoothSolver:  Solving for epsilon, Initial residual = 0.00755812, Final residual = 1.63393e-07, No Iterations 3
smoothSolver:  Solving for k, Initial residual = 0.270325, Final residual = 1.0894e-07, No Iterations 5
ExecutionTime = 0.07 s  ClockTime = 0 s

Courant Number mean: 0.00296893 max: 0.0270828
Interface Courant Number mean: 2.06603e-05 max: 0.0266887
deltaT = 0.00198617
Time = 0.00630415

PIMPLE: iteration 1
smoothSolver:  Solving for alpha.water, Initial residual = 0.000180556, Final residual = 4.19774e-09, No Iterations 1
Phase-1 volume fraction = 0.130194  Min(alpha.water) = -1.3772e-14  Max(alpha.water) = 1
MULES: Correcting alpha.water
MULES: Correcting alpha.water
Phase-1 volume fraction = 0.130194  Min(alpha.water) = -9.22201e-11  Max(alpha.water) = 1
DICPCG:  Solving for p_rgh, Initial residual = 0.00177892, Final residual = 4.70057e-05, No Iterations 8
time step continuity errors : sum local = 1.7535e-05, global = -2.02419e-08, cumulative = -8.45203e-06
DICPCG:  Solving for p_rgh, Initial residual = 0.000104851, Final residual = 3.73297e-06, No Iterations 13
time step continuity errors : sum local = 1.40899e-06, global = -3.50662e-07, cumulative = -8.80269e-06
DICPCG:  Solving for p_rgh, Initial residual = 2.65144e-05, Final residual = 9.22497e-08, No Iterations 40
time step continuity errors : sum local = 3.4606e-08, global = 1.47346e-09, cumulative = -8.80122e-06
smoothSolver:  Solving for epsilon, Initial residual = 0.0069367, Final residual = 2.89686e-07, No Iterations 3
smoothSolver:  Solving for k, Initial residual = 0.200666, Final residual = 1.95557e-07, No Iterations 5
ExecutionTime = 0.08 s  ClockTime = 0 s

Courant Number mean: 0.00505707 max: 0.0457576
Interface Courant Number mean: 0.000116049 max: 0.0457575
deltaT = 0.00242755
Time = 0.0087317

PIMPLE: iteration 1
smoothSolver:  Solving for alpha.water, Initial residual = 0.000295608, Final residual = 2.07391e-14, No Iterations 2
Phase-1 volume fraction = 0.130194  Min(alpha.water) = -4.15344e-17  Max(alpha.water) = 1
MULES: Correcting alpha.water
MULES: Correcting alpha.water
Phase-1 volume fraction = 0.130194  Min(alpha.water) = -4.15344e-17  Max(alpha.water) = 1
DICPCG:  Solving for p_rgh, Initial residual = 0.00247025, Final residual = 9.17312e-05, No Iterations 2
time step continuity errors : sum local = 4.73585e-05, global = 2.57891e-07, cumulative = -8.54333e-06
DICPCG:  Solving for p_rgh, Initial residual = 0.000133571, Final residual = 6.24453e-06, No Iterations 11
time step continuity errors : sum local = 3.22555e-06, global = 1.77566e-07, cumulative = -8.36576e-06
DICPCG:  Solving for p_rgh, Initial residual = 3.61711e-05, Final residual = 7.50241e-08, No Iterations 46
time step continuity errors : sum local = 3.91227e-08, global = -1.39303e-09, cumulative = -8.36715e-06
smoothSolver:  Solving for epsilon, Initial residual = 0.00683953, Final residual = 6.78945e-07, No Iterations 3
smoothSolver:  Solving for k, Initial residual = 0.169837, Final residual = 4.88132e-07, No Iterations 5
ExecutionTime = 0.08 s  ClockTime = 0 s

Courant Number mean: 0.00851631 max: 0.0743665
Interface Courant Number mean: 0.000254742 max: 0.0743663
deltaT = 0.00294774
Time = 0.0116794

PIMPLE: iteration 1
smoothSolver:  Solving for alpha.water, Initial residual = 0.000475755, Final residual = 4.65873e-13, No Iterations 2
Phase-1 volume fraction = 0.130194  Min(alpha.water) = 0  Max(alpha.water) = 1
MULES: Correcting alpha.water
MULES: Correcting alpha.water
Phase-1 volume fraction = 0.130194  Min(alpha.water) = -1.18763e-13  Max(alpha.water) = 1
DICPCG:  Solving for p_rgh, Initial residual = 0.0033021, Final residual = 0.000164391, No Iterations 1
time step continuity errors : sum local = 0.000116142, global = 2.37331e-07, cumulative = -8.12982e-06
DICPCG:  Solving for p_rgh, Initial residual = 0.000199141, Final residual = 9.0298e-06, No Iterations 10
time step continuity errors : sum local = 6.37683e-06, global = 1.33099e-07, cumulative = -7.99672e-06
DICPCG:  Solving for p_rgh, Initial residual = 5.84698e-05, Final residual = 9.43649e-08, No Iterations 47
time step continuity errors : sum local = 6.74409e-08, global = 2.20906e-09, cumulative = -7.99451e-06
smoothSolver:  Solving for epsilon, Initial residual = 0.00659853, Final residual = 1.82324e-07, No Iterations 4
smoothSolver:  Solving for k, Initial residual = 0.14887, Final residual = 1.96525e-07, No Iterations 6
ExecutionTime = 0.09 s  ClockTime = 0 s

Courant Number mean: 0.0138287 max: 0.112633
Interface Courant Number mean: 0.000476172 max: 0.112633
deltaT = 0.00348369
Time = 0.0151631

PIMPLE: iteration 1
smoothSolver:  Solving for alpha.water, Initial residual = 0.000727291, Final residual = 4.51383e-11, No Iterations 2
Phase-1 volume fraction = 0.130194  Min(alpha.water) = 0  Max(alpha.water) = 1
MULES: Correcting alpha.water
MULES: Correcting alpha.water
Phase-1 volume fraction = 0.130194  Min(alpha.water) = -2.01476e-09  Max(alpha.water) = 1
DICPCG:  Solving for p_rgh, Initial residual = 0.00411855, Final residual = 8.73827e-05, No Iterations 2
time step continuity errors : sum local = 8.05696e-05, global = 1.84675e-07, cumulative = -7.80984e-06
DICPCG:  Solving for p_rgh, Initial residual = 0.000133114, Final residual = 5.45236e-06, No Iterations 12
time step continuity errors : sum local = 5.0262e-06, global = 2.29082e-07, cumulative = -7.58076e-06
DICPCG:  Solving for p_rgh, Initial residual = 4.49231e-05, Final residual = 9.6791e-08, No Iterations 44
time step continuity errors : sum local = 9.03973e-08, global = 4.32424e-09, cumulative = -7.57643e-06
smoothSolver:  Solving for epsilon, Initial residual = 0.00617245, Final residual = 3.9729e-07, No Iterations 4
smoothSolver:  Solving for k, Initial residual = 0.130044, Final residual = 3.9766e-07, No Iterations 6
ExecutionTime = 0.1 s  ClockTime = 0 s

Courant Number mean: 0.0211866 max: 0.158725
Interface Courant Number mean: 0.000793907 max: 0.158725
deltaT = 0.00435461
Time = 0.0195177

PIMPLE: iteration 1
smoothSolver:  Solving for alpha.water, Initial residual = 0.00114639, Final residual = 7.46444e-10, No Iterations 2
Phase-1 volume fraction = 0.130194  Min(alpha.water) = 0  Max(alpha.water) = 1
MULES: Correcting alpha.water
MULES: Correcting alpha.water
Phase-1 volume fraction = 0.130194  Min(alpha.water) = -8.50364e-09  Max(alpha.water) = 1
DICPCG:  Solving for p_rgh, Initial residual = 0.00512233, Final residual = 9.452e-05, No Iterations 2
time step continuity errors : sum local = 0.000123353, global = 2.84914e-07, cumulative = -7.29152e-06
DICPCG:  Solving for p_rgh, Initial residual = 0.000140271, Final residual = 6.77123e-06, No Iterations 12
time step continuity errors : sum local = 8.8287e-06, global = 4.19292e-07, cumulative = -6.87223e-06
DICPCG:  Solving for p_rgh, Initial residual = 5.12429e-05, Final residual = 9.43969e-08, No Iterations 45
time step continuity errors : sum local = 1.25141e-07, global = 3.06056e-09, cumulative = -6.86917e-06
smoothSolver:  Solving for epsilon, Initial residual = 0.00688567, Final residual = 2.10781e-07, No Iterations 5
smoothSolver:  Solving for k, Initial residual = 0.121754, Final residual = 2.62832e-07, No Iterations 7
ExecutionTime = 0.11 s  ClockTime = 0 s

Courant Number mean: 0.0337217 max: 0.232053
Interface Courant Number mean: 0.00136089 max: 0.232053
deltaT = 0.00508038
Time = 0.0245981

PIMPLE: iteration 1
smoothSolver:  Solving for alpha.water, Initial residual = 0.00166856, Final residual = 5.72408e-09, No Iterations 2
Phase-1 volume fraction = 0.130194  Min(alpha.water) = 0  Max(alpha.water) = 1
MULES: Correcting alpha.water
MULES: Correcting alpha.water
Phase-1 volume fraction = 0.130194  Min(alpha.water) = -2.61318e-07  Max(alpha.water) = 1
DICPCG:  Solving for p_rgh, Initial residual = 0.006191, Final residual = 0.000106728, No Iterations 2
time step continuity errors : sum local = 0.000176726, global = 1.93471e-07, cumulative = -6.6757e-06
DICPCG:  Solving for p_rgh, Initial residual = 0.000156663, Final residual = 5.81564e-06, No Iterations 13
time step continuity errors : sum local = 9.61122e-06, global = 4.84898e-07, cumulative = -6.1908e-06
DICPCG:  Solving for p_rgh, Initial residual = 5.56663e-05, Final residual = 8.51681e-08, No Iterations 46
time step continuity errors : sum local = 1.4354e-07, global = -1.09606e-08, cumulative = -6.20176e-06
smoothSolver:  Solving for epsilon, Initial residual = 0.00713896, Final residual = 4.37324e-07, No Iterations 5
smoothSolver:  Solving for k, Initial residual = 0.107152, Final residual = 4.15538e-07, No Iterations 7
ExecutionTime = 0.12 s  ClockTime = 0 s

Courant Number mean: 0.0487511 max: 0.294201
Interface Courant Number mean: 0.00199747 max: 0.294201
deltaT = 0.00635047
Time = 0.0309486

PIMPLE: iteration 1
smoothSolver:  Solving for alpha.water, Initial residual = 0.00254798, Final residual = 3.33206e-13, No Iterations 3
Phase-1 volume fraction = 0.130194  Min(alpha.water) = -1.23889e-14  Max(alpha.water) = 1
MULES: Correcting alpha.water
MULES: Correcting alpha.water
Phase-1 volume fraction = 0.130194  Min(alpha.water) = -2.37254e-06  Max(alpha.water) = 1
DICPCG:  Solving for p_rgh, Initial residual = 0.00811228, Final residual = 0.000138936, No Iterations 2
time step continuity errors : sum local = 0.000321623, global = 1.41884e-07, cumulative = -6.05987e-06
DICPCG:  Solving for p_rgh, Initial residual = 0.000196812, Final residual = 8.38972e-06, No Iterations 13
time step continuity errors : sum local = 1.93425e-05, global = 1.77712e-06, cumulative = -4.28275e-06
DICPCG:  Solving for p_rgh, Initial residual = 6.72169e-05, Final residual = 8.08687e-08, No Iterations 50
time step continuity errors : sum local = 1.91366e-07, global = -2.3705e-08, cumulative = -4.30645e-06
smoothSolver:  Solving for epsilon, Initial residual = 0.00762631, Final residual = 3.38532e-07, No Iterations 6
smoothSolver:  Solving for k, Initial residual = 0.101729, Final residual = 9.61121e-07, No Iterations 7
ExecutionTime = 0.12 s  ClockTime = 0 s

Courant Number mean: 0.0745697 max: 0.425043
Interface Courant Number mean: 0.00307907 max: 0.419929
deltaT = 0.00635047
Time = 0.0372991

PIMPLE: iteration 1
smoothSolver:  Solving for alpha.water, Initial residual = 0.00309907, Final residual = 1.19765e-12, No Iterations 3
Phase-1 volume fraction = 0.130194  Min(alpha.water) = -9.50104e-15  Max(alpha.water) = 1
MULES: Correcting alpha.water
MULES: Correcting alpha.water
Phase-1 volume fraction = 0.130194  Min(alpha.water) = -5.85043e-06  Max(alpha.water) = 1
DICPCG:  Solving for p_rgh, Initial residual = 0.00963367, Final residual = 0.000151861, No Iterations 2
time step continuity errors : sum local = 0.000354692, global = -9.32697e-07, cumulative = -5.23915e-06
DICPCG:  Solving for p_rgh, Initial residual = 0.00021858, Final residual = 1.07702e-05, No Iterations 13
time step continuity errors : sum local = 2.49874e-05, global = 1.856e-06, cumulative = -3.38315e-06
DICPCG:  Solving for p_rgh, Initial residual = 7.103e-05, Final residual = 7.97018e-08, No Iterations 51
time step continuity errors : sum local = 1.89887e-07, global = -2.06642e-08, cumulative = -3.40382e-06
smoothSolver:  Solving for epsilon, Initial residual = 0.00670131, Final residual = 2.90513e-07, No Iterations 6
smoothSolver:  Solving for k, Initial residual = 0.0806818, Final residual = 8.69444e-07, No Iterations 7
ExecutionTime = 0.13 s  ClockTime = 0 s

Courant Number mean: 0.0880792 max: 0.467532
Interface Courant Number mean: 0.00392348 max: 0.465145
deltaT = 0.00635047
Time = 0.0436495

PIMPLE: iteration 1
smoothSolver:  Solving for alpha.water, Initial residual = 0.00363953, Final residual = 3.1419e-10, No Iterations 3
Phase-1 volume fraction = 0.130194  Min(alpha.water) = -6.19869e-14  Max(alpha.water) = 1
MULES: Correcting alpha.water
MULES: Correcting alpha.water
Phase-1 volume fraction = 0.130194  Min(alpha.water) = -8.92293e-06  Max(alpha.water) = 1
DICPCG:  Solving for p_rgh, Initial residual = 0.0119869, Final residual = 0.000184586, No Iterations 2
time step continuity errors : sum local = 0.000433499, global = -1.05639e-06, cumulative = -4.4602e-06
DICPCG:  Solving for p_rgh, Initial residual = 0.000258099, Final residual = 1.13599e-05, No Iterations 14
time step continuity errors : sum local = 2.64244e-05, global = 2.08293e-06, cumulative = -2.37727e-06
DICPCG:  Solving for p_rgh, Initial residual = 8.10706e-05, Final residual = 8.40065e-08, No Iterations 51
time step continuity errors : sum local = 2.01369e-07, global = -1.80744e-08, cumulative = -2.39535e-06
smoothSolver:  Solving for epsilon, Initial residual = 0.00694988, Final residual = 2.78898e-07, No Iterations 6
smoothSolver:  Solving for k, Initial residual = 0.0673004, Final residual = 3.10704e-07, No Iterations 8
ExecutionTime = 0.14 s  ClockTime = 0 s

Courant Number mean: 0.101493 max: 0.519906
Interface Courant Number mean: 0.00604666 max: 0.483335
deltaT = 0.00635047
Time = 0.05

PIMPLE: iteration 1
smoothSolver:  Solving for alpha.water, Initial residual = 0.00416937, Final residual = 1.44436e-09, No Iterations 3
Phase-1 volume fraction = 0.130194  Min(alpha.water) = -5.38706e-15  Max(alpha.water) = 1
MULES: Correcting alpha.water
MULES: Correcting alpha.water
Phase-1 volume fraction = 0.130194  Min(alpha.water) = -1.08086e-05  Max(alpha.water) = 1
DICPCG:  Solving for p_rgh, Initial residual = 0.0147401, Final residual = 0.000733074, No Iterations 1
time step continuity errors : sum local = 0.00172944, global = -1.19607e-06, cumulative = -3.59142e-06
DICPCG:  Solving for p_rgh, Initial residual = 0.000916909, Final residual = 4.24293e-05, No Iterations 11
time step continuity errors : sum local = 9.87771e-05, global = 2.08709e-05, cumulative = 1.72795e-05
DICPCG:  Solving for p_rgh, Initial residual = 0.000298005, Final residual = 8.49729e-08, No Iterations 54
time step continuity errors : sum local = 2.04645e-07, global = -2.14938e-08, cumulative = 1.7258e-05
smoothSolver:  Solving for epsilon, Initial residual = 0.00739057, Final residual = 2.93448e-07, No Iterations 6
smoothSolver:  Solving for k, Initial residual = 0.0582065, Final residual = 4.00365e-07, No Iterations 8
ExecutionTime = 0.15 s  ClockTime = 0 s

Courant Number mean: 0.114845 max: 0.592999
Interface Courant Number mean: 0.00700596 max: 0.527448
deltaT = 0.00714286
Time = 0.0571429

PIMPLE: iteration 1
smoothSolver:  Solving for alpha.water, Initial residual = 0.00526621, Final residual = 6.81671e-09, No Iterations 3
Phase-1 volume fraction = 0.130194  Min(alpha.water) = -3.23578e-13  Max(alpha.water) = 1
MULES: Correcting alpha.water
MULES: Correcting alpha.water
Phase-1 volume fraction = 0.130194  Min(alpha.water) = -1.40358e-05  Max(alpha.water) = 1
DICPCG:  Solving for p_rgh, Initial residual = 0.0199146, Final residual = 0.00032302, No Iterations 2
time step continuity errors : sum local = 0.000907341, global = -8.78057e-06, cumulative = 8.47739e-06
DICPCG:  Solving for p_rgh, Initial residual = 0.000443225, Final residual = 1.65112e-05, No Iterations 15
time step continuity errors : sum local = 4.55089e-05, global = 4.50519e-06, cumulative = 1.29826e-05
DICPCG:  Solving for p_rgh, Initial residual = 0.000126974, Final residual = 8.68838e-08, No Iterations 53
time step continuity errors : sum local = 2.49521e-07, global = -2.55355e-08, cumulative = 1.2957e-05
smoothSolver:  Solving for epsilon, Initial residual = 0.00840532, Final residual = 6.86349e-07, No Iterations 6
smoothSolver:  Solving for k, Initial residual = 0.0575541, Final residual = 4.08269e-07, No Iterations 9
ExecutionTime = 0.16 s  ClockTime = 0 s

Courant Number mean: 0.145244 max: 0.789244
Interface Courant Number mean: 0.00920093 max: 0.622095
deltaT = 0.00857143
Time = 0.0657143

PIMPLE: iteration 1
smoothSolver:  Solving for alpha.water, Initial residual = 0.00704143, Final residual = 1.353e-10, No Iterations 4
Phase-1 volume fraction = 0.130194  Min(alpha.water) = -7.52182e-14  Max(alpha.water) = 1
MULES: Correcting alpha.water
MULES: Correcting alpha.water
Phase-1 volume fraction = 0.130194  Min(alpha.water) = -3.00079e-05  Max(alpha.water) = 1
DICPCG:  Solving for p_rgh, Initial residual = 0.0305012, Final residual = 0.000500997, No Iterations 2
time step continuity errors : sum local = 0.00183321, global = -2.73793e-06, cumulative = 1.02191e-05
DICPCG:  Solving for p_rgh, Initial residual = 0.000679301, Final residual = 2.85785e-05, No Iterations 15
time step continuity errors : sum local = 0.000101325, global = 1.24663e-05, cumulative = 2.26854e-05
DICPCG:  Solving for p_rgh, Initial residual = 0.000203577, Final residual = 7.4691e-08, No Iterations 42
time step continuity errors : sum local = 2.78998e-07, global = 4.17399e-09, cumulative = 2.26896e-05
smoothSolver:  Solving for epsilon, Initial residual = 0.00985135, Final residual = 7.52148e-07, No Iterations 7
smoothSolver:  Solving for k, Initial residual = 0.0610509, Final residual = 7.67825e-07, No Iterations 10
ExecutionTime = 0.17 s  ClockTime = 0 s

Courant Number mean: 0.195574 max: 1.15837
Interface Courant Number mean: 0.0144145 max: 0.804572
deltaT = 0.00685714
Time = 0.0725714

PIMPLE: iteration 1
smoothSolver:  Solving for alpha.water, Initial residual = 0.00627038, Final residual = 9.71738e-11, No Iterations 4
Phase-1 volume fraction = 0.130194  Min(alpha.water) = -3.06856e-11  Max(alpha.water) = 1
MULES: Correcting alpha.water
MULES: Correcting alpha.water
Phase-1 volume fraction = 0.130194  Min(alpha.water) = -2.03769e-05  Max(alpha.water) = 1.00123
DICPCG:  Solving for p_rgh, Initial residual = 0.0339779, Final residual = 0.000537575, No Iterations 2
time step continuity errors : sum local = 0.00142704, global = -6.11323e-06, cumulative = 1.65764e-05
DICPCG:  Solving for p_rgh, Initial residual = 0.000689412, Final residual = 2.90723e-05, No Iterations 15
time step continuity errors : sum local = 7.47897e-05, global = 1.22866e-05, cumulative = 2.88629e-05
DICPCG:  Solving for p_rgh, Initial residual = 0.000200723, Final residual = 9.09249e-08, No Iterations 54
time step continuity errors : sum local = 2.43934e-07, global = -1.91609e-08, cumulative = 2.88437e-05
smoothSolver:  Solving for epsilon, Initial residual = 0.00832675, Final residual = 7.68143e-07, No Iterations 6
smoothSolver:  Solving for k, Initial residual = 0.0455217, Final residual = 4.53835e-07, No Iterations 9
ExecutionTime = 0.19 s  ClockTime = 0 s

Courant Number mean: 0.170405 max: 1.06478
Interface Courant Number mean: 0.01288 max: 0.70717
deltaT = 0.00685714
Time = 0.0794286

PIMPLE: iteration 1
smoothSolver:  Solving for alpha.water, Initial residual = 0.00679709, Final residual = 1.04155e-10, No Iterations 4
Phase-1 volume fraction = 0.130194  Min(alpha.water) = -2.28859e-11  Max(alpha.water) = 1
MULES: Correcting alpha.water
MULES: Correcting alpha.water
Phase-1 volume fraction = 0.130194  Min(alpha.water) = -2.53884e-05  Max(alpha.water) = 1
DICPCG:  Solving for p_rgh, Initial residual = 0.0226782, Final residual = 0.000470127, No Iterations 2
time step continuity errors : sum local = 0.00127666, global = -7.17597e-06, cumulative = 2.16678e-05
DICPCG:  Solving for p_rgh, Initial residual = 0.000614298, Final residual = 2.96801e-05, No Iterations 15
time step continuity errors : sum local = 7.89664e-05, global = 6.34803e-06, cumulative = 2.80158e-05
DICPCG:  Solving for p_rgh, Initial residual = 0.000183933, Final residual = 9.03678e-08, No Iterations 54
time step continuity errors : sum local = 2.51746e-07, global = -2.16134e-08, cumulative = 2.79942e-05
smoothSolver:  Solving for epsilon, Initial residual = 0.00855, Final residual = 9.43291e-07, No Iterations 6
smoothSolver:  Solving for k, Initial residual = 0.0431671, Final residual = 5.58352e-07, No Iterations 9
ExecutionTime = 0.2 s  ClockTime = 0 s

Courant Number mean: 0.184051 max: 1.23523
Interface Courant Number mean: 0.013425 max: 0.759761
deltaT = 0.00514286
Time = 0.0845714

PIMPLE: iteration 1
smoothSolver:  Solving for alpha.water, Initial residual = 0.00549113, Final residual = 6.10221e-09, No Iterations 3
Phase-1 volume fraction = 0.130194  Min(alpha.water) = -2.3239e-09  Max(alpha.water) = 1
MULES: Correcting alpha.water
MULES: Correcting alpha.water
Phase-1 volume fraction = 0.130194  Min(alpha.water) = -1.48458e-05  Max(alpha.water) = 1
DICPCG:  Solving for p_rgh, Initial residual = 0.0203719, Final residual = 0.00100998, No Iterations 1
time step continuity errors : sum local = 0.00180861, global = -2.96342e-06, cumulative = 2.50308e-05
DICPCG:  Solving for p_rgh, Initial residual = 0.00124217, Final residual = 5.62102e-05, No Iterations 12
time step continuity errors : sum local = 9.85956e-05, global = 2.2888e-05, cumulative = 4.79187e-05
DICPCG:  Solving for p_rgh, Initial residual = 0.000332118, Final residual = 7.51487e-08, No Iterations 54
time step continuity errors : sum local = 1.36482e-07, global = -1.17317e-08, cumulative = 4.7907e-05
smoothSolver:  Solving for epsilon, Initial residual = 0.00694709, Final residual = 8.20508e-07, No Iterations 5
smoothSolver:  Solving for k, Initial residual = 0.0315839, Final residual = 8.00938e-07, No Iterations 7
ExecutionTime = 0.2 s  ClockTime = 0 s

Courant Number mean: 0.145962 max: 1.0261
Interface Courant Number mean: 0.0105189 max: 0.572802
deltaT = 0.00514286
Time = 0.0897143

PIMPLE: iteration 1
smoothSolver:  Solving for alpha.water, Initial residual = 0.0058018, Final residual = 6.59902e-09, No Iterations 3
Phase-1 volume fraction = 0.130194  Min(alpha.water) = -1.88064e-09  Max(alpha.water) = 1
MULES: Correcting alpha.water
MULES: Correcting alpha.water
Phase-1 volume fraction = 0.130194  Min(alpha.water) = -2.27165e-05  Max(alpha.water) = 1
DICPCG:  Solving for p_rgh, Initial residual = 0.0240625, Final residual = 0.000376136, No Iterations 2
time step continuity errors : sum local = 0.000672054, global = -7.48445e-06, cumulative = 4.04225e-05
DICPCG:  Solving for p_rgh, Initial residual = 0.000499075, Final residual = 2.23827e-05, No Iterations 15
time step continuity errors : sum local = 3.9013e-05, global = 2.22819e-06, cumulative = 4.26507e-05
DICPCG:  Solving for p_rgh, Initial residual = 0.000136915, Final residual = 7.32305e-08, No Iterations 53
time step continuity errors : sum local = 1.32703e-07, global = -1.27387e-08, cumulative = 4.2638e-05
smoothSolver:  Solving for epsilon, Initial residual = 0.00717179, Final residual = 9.75292e-07, No Iterations 5
smoothSolver:  Solving for k, Initial residual = 0.0309799, Final residual = 9.35996e-07, No Iterations 7
ExecutionTime = 0.21 s  ClockTime = 0 s

Courant Number mean: 0.153862 max: 1.15067
Interface Courant Number mean: 0.0109744 max: 0.58376
deltaT = 0.00514286
Time = 0.0948571

PIMPLE: iteration 1
smoothSolver:  Solving for alpha.water, Initial residual = 0.00609421, Final residual = 8.04572e-09, No Iterations 3
Phase-1 volume fraction = 0.130194  Min(alpha.water) = -1.50545e-09  Max(alpha.water) = 1
MULES: Correcting alpha.water
MULES: Correcting alpha.water
Phase-1 volume fraction = 0.130194  Min(alpha.water) = -2.53649e-05  Max(alpha.water) = 1.00038
DICPCG:  Solving for p_rgh, Initial residual = 0.0290871, Final residual = 0.000479269, No Iterations 2
time step continuity errors : sum local = 0.000848312, global = -1.0835e-06, cumulative = 4.15545e-05
DICPCG:  Solving for p_rgh, Initial residual = 0.000610529, Final residual = 2.91621e-05, No Iterations 15
time step continuity errors : sum local = 5.02252e-05, global = 9.12656e-06, cumulative = 5.06811e-05
DICPCG:  Solving for p_rgh, Initial residual = 0.000173538, Final residual = 9.55938e-08, No Iterations 53
time step continuity errors : sum local = 1.71368e-07, global = -1.40616e-08, cumulative = 5.0667e-05
smoothSolver:  Solving for epsilon, Initial residual = 0.00746633, Final residual = 2.58706e-07, No Iterations 6
smoothSolver:  Solving for k, Initial residual = 0.0304197, Final residual = 3.01089e-07, No Iterations 8
ExecutionTime = 0.22 s  ClockTime = 0 s

Courant Number mean: 0.16142 max: 1.30372
Interface Courant Number mean: 0.0122134 max: 0.633369
deltaT = 0.00514286
Time = 0.1

PIMPLE: iteration 1
smoothSolver:  Solving for alpha.water, Initial residual = 0.0063769, Final residual = 4.82299e-11, No Iterations 4
Phase-1 volume fraction = 0.130194  Min(alpha.water) = -1.19408e-09  Max(alpha.water) = 1
MULES: Correcting alpha.water
MULES: Correcting alpha.water
Phase-1 volume fraction = 0.130194  Min(alpha.water) = -2.5557e-05  Max(alpha.water) = 1
DICPCG:  Solving for p_rgh, Initial residual = 0.0248963, Final residual = 0.000488318, No Iterations 2
time step continuity errors : sum local = 0.000887614, global = -4.37363e-06, cumulative = 4.62934e-05
DICPCG:  Solving for p_rgh, Initial residual = 0.000620197, Final residual = 3.05672e-05, No Iterations 15
time step continuity errors : sum local = 5.43945e-05, global = 6.09389e-06, cumulative = 5.23873e-05
DICPCG:  Solving for p_rgh, Initial residual = 0.00017022, Final residual = 6.3247e-08, No Iterations 54
time step continuity errors : sum local = 1.17048e-07, global = -7.62526e-09, cumulative = 5.23796e-05
smoothSolver:  Solving for epsilon, Initial residual = 0.00779923, Final residual = 3.07551e-07, No Iterations 6
smoothSolver:  Solving for k, Initial residual = 0.0298646, Final residual = 3.44848e-07, No Iterations 8
ExecutionTime = 0.24 s  ClockTime = 0 s

Courant Number mean: 0.168667 max: 1.48852
Interface Courant Number mean: 0.0126247 max: 0.622025
deltaT = 0.00357143
Time = 0.103571

PIMPLE: iteration 1
smoothSolver:  Solving for alpha.water, Initial residual = 0.00463045, Final residual = 1.73707e-09, No Iterations 3
Phase-1 volume fraction = 0.130194  Min(alpha.water) = -8.47113e-08  Max(alpha.water) = 1
MULES: Correcting alpha.water
MULES: Correcting alpha.water
Phase-1 volume fraction = 0.130194  Min(alpha.water) = -2.52142e-06  Max(alpha.water) = 1
DICPCG:  Solving for p_rgh, Initial residual = 0.0169129, Final residual = 0.00078011, No Iterations 1
time step continuity errors : sum local = 0.000816742, global = -1.90434e-06, cumulative = 5.04753e-05
DICPCG:  Solving for p_rgh, Initial residual = 0.000940623, Final residual = 4.40316e-05, No Iterations 12
time step continuity errors : sum local = 4.53286e-05, global = 9.92145e-06, cumulative = 6.03967e-05
DICPCG:  Solving for p_rgh, Initial residual = 0.000227847, Final residual = 9.65551e-08, No Iterations 52
time step continuity errors : sum local = 1.02063e-07, global = -8.49739e-09, cumulative = 6.03882e-05
smoothSolver:  Solving for epsilon, Initial residual = 0.0059786, Final residual = 1.64867e-07, No Iterations 5
smoothSolver:  Solving for k, Initial residual = 0.0205395, Final residual = 4.11636e-07, No Iterations 6
ExecutionTime = 0.24 s  ClockTime = 0 s

Courant Number mean: 0.12066 max: 1.12015
Interface Courant Number mean: 0.00848383 max: 0.441435
deltaT = 0.00309524
Time = 0.106667

PIMPLE: iteration 1
smoothSolver:  Solving for alpha.water, Initial residual = 0.004148, Final residual = 8.00799e-10, No Iterations 3
Phase-1 volume fraction = 0.130194  Min(alpha.water) = -7.25823e-08  Max(alpha.water) = 1
MULES: Correcting alpha.water
MULES: Correcting alpha.water
Phase-1 volume fraction = 0.130194  Min(alpha.water) = -5.18174e-06  Max(alpha.water) = 1
DICPCG:  Solving for p_rgh, Initial residual = 0.0164935, Final residual = 0.000770946, No Iterations 1
time step continuity errors : sum local = 0.000641516, global = -2.35347e-06, cumulative = 5.80348e-05
DICPCG:  Solving for p_rgh, Initial residual = 0.000911493, Final residual = 3.99563e-05, No Iterations 12
time step continuity errors : sum local = 3.26973e-05, global = 6.78274e-06, cumulative = 6.48175e-05
DICPCG:  Solving for p_rgh, Initial residual = 0.000205025, Final residual = 9.23641e-08, No Iterations 52
time step continuity errors : sum local = 7.74991e-08, global = -4.34386e-09, cumulative = 6.48132e-05
smoothSolver:  Solving for epsilon, Initial residual = 0.00545563, Final residual = 5.21227e-07, No Iterations 4
smoothSolver:  Solving for k, Initial residual = 0.0177356, Final residual = 8.8579e-07, No Iterations 5
ExecutionTime = 0.25 s  ClockTime = 0 s

Courant Number mean: 0.107278 max: 1.03936
Interface Courant Number mean: 0.00759462 max: 0.455753
deltaT = 0.00288889
Time = 0.109556

PIMPLE: iteration 1
smoothSolver:  Solving for alpha.water, Initial residual = 0.0039847, Final residual = 5.95702e-10, No Iterations 3
Phase-1 volume fraction = 0.130194  Min(alpha.water) = -6.25422e-08  Max(alpha.water) = 1
MULES: Correcting alpha.water
MULES: Correcting alpha.water
Phase-1 volume fraction = 0.130194  Min(alpha.water) = -6.78673e-06  Max(alpha.water) = 1
DICPCG:  Solving for p_rgh, Initial residual = 0.0179437, Final residual = 0.000892983, No Iterations 1
time step continuity errors : sum local = 0.000662759, global = -1.55826e-06, cumulative = 6.32549e-05
DICPCG:  Solving for p_rgh, Initial residual = 0.00104193, Final residual = 4.36747e-05, No Iterations 12
time step continuity errors : sum local = 3.18392e-05, global = 8.3193e-06, cumulative = 7.15742e-05
DICPCG:  Solving for p_rgh, Initial residual = 0.000210772, Final residual = 9.1473e-08, No Iterations 52
time step continuity errors : sum local = 6.82901e-08, global = -4.09257e-09, cumulative = 7.15701e-05
smoothSolver:  Solving for epsilon, Initial residual = 0.00529103, Final residual = 3.86554e-07, No Iterations 4
smoothSolver:  Solving for k, Initial residual = 0.0165189, Final residual = 6.08336e-07, No Iterations 5
ExecutionTime = 0.26 s  ClockTime = 0 s

Courant Number mean: 0.102432 max: 1.0325
Interface Courant Number mean: 0.0070585 max: 0.425079
deltaT = 0.00288889
Time = 0.112444

PIMPLE: iteration 1
smoothSolver:  Solving for alpha.water, Initial residual = 0.00408825, Final residual = 6.79782e-10, No Iterations 3
Phase-1 volume fraction = 0.130194  Min(alpha.water) = -5.36943e-08  Max(alpha.water) = 1
MULES: Correcting alpha.water
MULES: Correcting alpha.water
Phase-1 volume fraction = 0.130194  Min(alpha.water) = -8.18545e-06  Max(alpha.water) = 1
DICPCG:  Solving for p_rgh, Initial residual = 0.0176793, Final residual = 0.000313458, No Iterations 2
time step continuity errors : sum local = 0.000232276, global = -2.04576e-06, cumulative = 6.95244e-05
DICPCG:  Solving for p_rgh, Initial residual = 0.000392977, Final residual = 1.76654e-05, No Iterations 15
time step continuity errors : sum local = 1.28955e-05, global = 1.8729e-06, cumulative = 7.13973e-05
DICPCG:  Solving for p_rgh, Initial residual = 9.23634e-05, Final residual = 8.31895e-08, No Iterations 51
time step continuity errors : sum local = 6.21658e-08, global = -5.19772e-09, cumulative = 7.13921e-05
smoothSolver:  Solving for epsilon, Initial residual = 0.0054552, Final residual = 4.26324e-07, No Iterations 4
smoothSolver:  Solving for k, Initial residual = 0.0165193, Final residual = 6.5552e-07, No Iterations 5
ExecutionTime = 0.27 s  ClockTime = 0 s

Courant Number mean: 0.104669 max: 1.09757
Interface Courant Number mean: 0.00743057 max: 0.422684
deltaT = 0.00268254
Time = 0.115127

PIMPLE: iteration 1
smoothSolver:  Solving for alpha.water, Initial residual = 0.00388738, Final residual = 5.31541e-10, No Iterations 3
Phase-1 volume fraction = 0.130194  Min(alpha.water) = -4.64169e-08  Max(alpha.water) = 1
MULES: Correcting alpha.water
MULES: Correcting alpha.water
Phase-1 volume fraction = 0.130194  Min(alpha.water) = -5.88824e-06  Max(alpha.water) = 1
DICPCG:  Solving for p_rgh, Initial residual = 0.019143, Final residual = 0.000324164, No Iterations 2
time step continuity errors : sum local = 0.000219412, global = -5.61163e-07, cumulative = 7.08309e-05
DICPCG:  Solving for p_rgh, Initial residual = 0.000396457, Final residual = 1.82893e-05, No Iterations 15
time step continuity errors : sum local = 1.21889e-05, global = 2.1521e-06, cumulative = 7.2983e-05
DICPCG:  Solving for p_rgh, Initial residual = 8.59746e-05, Final residual = 7.6489e-08, No Iterations 51
time step continuity errors : sum local = 5.20536e-08, global = -4.02548e-09, cumulative = 7.2979e-05
smoothSolver:  Solving for epsilon, Initial residual = 0.00527431, Final residual = 3.02272e-07, No Iterations 4
smoothSolver:  Solving for k, Initial residual = 0.0153376, Final residual = 4.26966e-07, No Iterations 5
ExecutionTime = 0.28 s  ClockTime = 0 s

Courant Number mean: 0.0990711 max: 1.07443
Interface Courant Number mean: 0.00685335 max: 0.667804
deltaT = 0.00249093
Time = 0.117618

PIMPLE: iteration 1
smoothSolver:  Solving for alpha.water, Initial residual = 0.00368992, Final residual = 3.93526e-10, No Iterations 3
Phase-1 volume fraction = 0.130194  Min(alpha.water) = -4.04222e-08  Max(alpha.water) = 1
MULES: Correcting alpha.water
MULES: Correcting alpha.water
Phase-1 volume fraction = 0.130194  Min(alpha.water) = -6.26988e-07  Max(alpha.water) = 1
DICPCG:  Solving for p_rgh, Initial residual = 0.0133584, Final residual = 0.000640143, No Iterations 1
time step continuity errors : sum local = 0.000387369, global = -5.73936e-07, cumulative = 7.2405e-05
DICPCG:  Solving for p_rgh, Initial residual = 0.000762761, Final residual = 3.05435e-05, No Iterations 12
time step continuity errors : sum local = 1.82731e-05, global = 4.22281e-06, cumulative = 7.66278e-05
DICPCG:  Solving for p_rgh, Initial residual = 0.000160781, Final residual = 9.89008e-08, No Iterations 50
time step continuity errors : sum local = 6.03262e-08, global = -3.68478e-09, cumulative = 7.66242e-05
smoothSolver:  Solving for epsilon, Initial residual = 0.00506719, Final residual = 2.1115e-07, No Iterations 4
smoothSolver:  Solving for k, Initial residual = 0.0142437, Final residual = 2.74273e-07, No Iterations 5
ExecutionTime = 0.29 s  ClockTime = 0 s

Courant Number mean: 0.0935737 max: 1.04454
Interface Courant Number mean: 0.00650204 max: 0.635791
deltaT = 0.00231301
Time = 0.119931

PIMPLE: iteration 1
smoothSolver:  Solving for alpha.water, Initial residual = 0.00350399, Final residual = 2.88509e-10, No Iterations 3
Phase-1 volume fraction = 0.130194  Min(alpha.water) = -3.54766e-08  Max(alpha.water) = 1
MULES: Correcting alpha.water
MULES: Correcting alpha.water
Phase-1 volume fraction = 0.130194  Min(alpha.water) = -6.08772e-07  Max(alpha.water) = 1
DICPCG:  Solving for p_rgh, Initial residual = 0.012587, Final residual = 0.000509648, No Iterations 1
time step continuity errors : sum local = 0.000274043, global = -8.70284e-07, cumulative = 7.57539e-05
DICPCG:  Solving for p_rgh, Initial residual = 0.000599874, Final residual = 2.72805e-05, No Iterations 12
time step continuity errors : sum local = 1.44901e-05, global = 2.834e-06, cumulative = 7.85879e-05
DICPCG:  Solving for p_rgh, Initial residual = 0.000132341, Final residual = 9.2137e-08, No Iterations 49
time step continuity errors : sum local = 4.98187e-08, global = -1.86837e-09, cumulative = 7.8586e-05
smoothSolver:  Solving for epsilon, Initial residual = 0.00485377, Final residual = 1.45281e-07, No Iterations 4
smoothSolver:  Solving for k, Initial residual = 0.0132328, Final residual = 1.73553e-07, No Iterations 5
ExecutionTime = 0.29 s  ClockTime = 0 s

Courant Number mean: 0.0882504 max: 1.00933
Interface Courant Number mean: 0.00615317 max: 0.735741
deltaT = 0.00231301
Time = 0.122244

PIMPLE: iteration 1
smoothSolver:  Solving for alpha.water, Initial residual = 0.00357336, Final residual = 3.25864e-10, No Iterations 3
Phase-1 volume fraction = 0.130194  Min(alpha.water) = -3.10924e-08  Max(alpha.water) = 1
MULES: Correcting alpha.water
MULES: Correcting alpha.water
Phase-1 volume fraction = 0.130194  Min(alpha.water) = -7.21766e-07  Max(alpha.water) = 1
DICPCG:  Solving for p_rgh, Initial residual = 0.0135963, Final residual = 0.000576724, No Iterations 1
time step continuity errors : sum local = 0.00030948, global = -5.92245e-07, cumulative = 7.79938e-05
DICPCG:  Solving for p_rgh, Initial residual = 0.000673986, Final residual = 2.28744e-05, No Iterations 13
time step continuity errors : sum local = 1.21113e-05, global = 2.90701e-06, cumulative = 8.09008e-05
DICPCG:  Solving for p_rgh, Initial residual = 0.000137019, Final residual = 8.69688e-08, No Iterations 50
time step continuity errors : sum local = 4.68827e-08, global = -1.51444e-09, cumulative = 8.08993e-05
smoothSolver:  Solving for epsilon, Initial residual = 0.00497062, Final residual = 1.56382e-07, No Iterations 4
smoothSolver:  Solving for k, Initial residual = 0.0132508, Final residual = 1.83929e-07, No Iterations 5
ExecutionTime = 0.3 s  ClockTime = 0 s

Courant Number mean: 0.0896156 max: 1.05048
Interface Courant Number mean: 0.00621938 max: 0.753087
deltaT = 0.00213508
Time = 0.124379

PIMPLE: iteration 1
smoothSolver:  Solving for alpha.water, Initial residual = 0.00335538, Final residual = 2.22768e-10, No Iterations 3
Phase-1 volume fraction = 0.130194  Min(alpha.water) = -2.74741e-08  Max(alpha.water) = 1
MULES: Correcting alpha.water
MULES: Correcting alpha.water
Phase-1 volume fraction = 0.130194  Min(alpha.water) = -6.38717e-07  Max(alpha.water) = 1.00001
DICPCG:  Solving for p_rgh, Initial residual = 0.0140154, Final residual = 0.000630662, No Iterations 1
time step continuity errors : sum local = 0.000295203, global = -5.46482e-07, cumulative = 8.03528e-05
DICPCG:  Solving for p_rgh, Initial residual = 0.000725287, Final residual = 3.42114e-05, No Iterations 12
time step continuity errors : sum local = 1.57944e-05, global = 3.11018e-06, cumulative = 8.3463e-05
DICPCG:  Solving for p_rgh, Initial residual = 0.000138615, Final residual = 7.60653e-08, No Iterations 50
time step continuity errors : sum local = 3.56896e-08, global = -2.25011e-09, cumulative = 8.34607e-05
smoothSolver:  Solving for epsilon, Initial residual = 0.00472468, Final residual = 1.02147e-07, No Iterations 4
smoothSolver:  Solving for k, Initial residual = 0.0122472, Final residual = 8.91731e-07, No Iterations 4
ExecutionTime = 0.31 s  ClockTime = 0 s

Courant Number mean: 0.0838446 max: 1.00468
Interface Courant Number mean: 0.00586756 max: 0.711693
deltaT = 0.00213508
Time = 0.126514

PIMPLE: iteration 1
smoothSolver:  Solving for alpha.water, Initial residual = 0.00340678, Final residual = 2.43511e-10, No Iterations 3
Phase-1 volume fraction = 0.130194  Min(alpha.water) = -2.42478e-08  Max(alpha.water) = 1
MULES: Correcting alpha.water
MULES: Correcting alpha.water
Phase-1 volume fraction = 0.130194  Min(alpha.water) = -7.29818e-07  Max(alpha.water) = 1
DICPCG:  Solving for p_rgh, Initial residual = 0.0150352, Final residual = 0.000745761, No Iterations 1
time step continuity errors : sum local = 0.000347546, global = -6.60429e-07, cumulative = 8.28003e-05
DICPCG:  Solving for p_rgh, Initial residual = 0.000854776, Final residual = 4.02437e-05, No Iterations 12
time step continuity errors : sum local = 1.85207e-05, global = 3.62356e-06, cumulative = 8.64238e-05
DICPCG:  Solving for p_rgh, Initial residual = 0.00015703, Final residual = 8.34334e-08, No Iterations 50
time step continuity errors : sum local = 3.90151e-08, global = -2.14927e-09, cumulative = 8.64217e-05
smoothSolver:  Solving for epsilon, Initial residual = 0.00480981, Final residual = 1.0908e-07, No Iterations 4
smoothSolver:  Solving for k, Initial residual = 0.0122648, Final residual = 9.32577e-07, No Iterations 4
ExecutionTime = 0.32 s  ClockTime = 0 s

Courant Number mean: 0.0849305 max: 1.04281
Interface Courant Number mean: 0.00562474 max: 0.731701
deltaT = 0.00213508
Time = 0.128649

PIMPLE: iteration 1
smoothSolver:  Solving for alpha.water, Initial residual = 0.00345728, Final residual = 2.72293e-10, No Iterations 3
Phase-1 volume fraction = 0.130194  Min(alpha.water) = -2.13776e-08  Max(alpha.water) = 1
MULES: Correcting alpha.water
MULES: Correcting alpha.water
Phase-1 volume fraction = 0.130194  Min(alpha.water) = -7.78922e-07  Max(alpha.water) = 1
DICPCG:  Solving for p_rgh, Initial residual = 0.0137727, Final residual = 0.000262143, No Iterations 2
time step continuity errors : sum local = 0.000122834, global = -7.58714e-07, cumulative = 8.5663e-05
DICPCG:  Solving for p_rgh, Initial residual = 0.000325419, Final residual = 1.424e-05, No Iterations 15
time step continuity errors : sum local = 6.59442e-06, global = 1.20108e-06, cumulative = 8.68641e-05
DICPCG:  Solving for p_rgh, Initial residual = 6.63685e-05, Final residual = 8.75767e-08, No Iterations 50
time step continuity errors : sum local = 4.11747e-08, global = -8.08934e-10, cumulative = 8.68632e-05
smoothSolver:  Solving for epsilon, Initial residual = 0.00488994, Final residual = 1.16178e-07, No Iterations 4
smoothSolver:  Solving for k, Initial residual = 0.0122754, Final residual = 9.73964e-07, No Iterations 4
ExecutionTime = 0.33 s  ClockTime = 0 s

Courant Number mean: 0.0859877 max: 1.08419
Interface Courant Number mean: 0.00583113 max: 0.752743
deltaT = 0.00194098
Time = 0.13059

PIMPLE: iteration 1
smoothSolver:  Solving for alpha.water, Initial residual = 0.00318676, Final residual = 1.66926e-10, No Iterations 3
Phase-1 volume fraction = 0.130194  Min(alpha.water) = -5.07532e-08  Max(alpha.water) = 1
MULES: Correcting alpha.water
MULES: Correcting alpha.water
Phase-1 volume fraction = 0.130194  Min(alpha.water) = -5.81829e-07  Max(alpha.water) = 1.00001
DICPCG:  Solving for p_rgh, Initial residual = 0.0147502, Final residual = 0.000245883, No Iterations 2
time step continuity errors : sum local = 0.000100535, global = -2.70396e-07, cumulative = 8.65928e-05
DICPCG:  Solving for p_rgh, Initial residual = 0.000301282, Final residual = 1.34731e-05, No Iterations 15
time step continuity errors : sum local = 5.4458e-06, global = 1.13082e-06, cumulative = 8.77237e-05
DICPCG:  Solving for p_rgh, Initial residual = 5.84165e-05, Final residual = 7.16544e-08, No Iterations 50
time step continuity errors : sum local = 2.93523e-08, global = -3.51411e-10, cumulative = 8.77233e-05
smoothSolver:  Solving for epsilon, Initial residual = 0.00456787, Final residual = 8.16103e-07, No Iterations 3
smoothSolver:  Solving for k, Initial residual = 0.0111651, Final residual = 5.67718e-07, No Iterations 4
ExecutionTime = 0.34 s  ClockTime = 0 s

Courant Number mean: 0.0790069 max: 1.01952
Interface Courant Number mean: 0.00495897 max: 0.701838
deltaT = 0.00194098
Time = 0.132531

PIMPLE: iteration 1
smoothSolver:  Solving for alpha.water, Initial residual = 0.00322792, Final residual = 1.81708e-10, No Iterations 3
Phase-1 volume fraction = 0.130194  Min(alpha.water) = -4.9107e-08  Max(alpha.water) = 1
MULES: Correcting alpha.water
MULES: Correcting alpha.water
Phase-1 volume fraction = 0.130194  Min(alpha.water) = -5.67066e-07  Max(alpha.water) = 1
DICPCG:  Solving for p_rgh, Initial residual = 0.0130837, Final residual = 0.000586266, No Iterations 1
time step continuity errors : sum local = 0.000241837, global = -2.60644e-07, cumulative = 8.74627e-05
DICPCG:  Solving for p_rgh, Initial residual = 0.000691355, Final residual = 2.58145e-05, No Iterations 13
time step continuity errors : sum local = 1.05502e-05, global = 2.00623e-06, cumulative = 8.94689e-05
DICPCG:  Solving for p_rgh, Initial residual = 0.000128167, Final residual = 8.15002e-08, No Iterations 50
time step continuity errors : sum local = 3.37628e-08, global = -1.46598e-09, cumulative = 8.94674e-05
smoothSolver:  Solving for epsilon, Initial residual = 0.00465599, Final residual = 8.5459e-07, No Iterations 3
smoothSolver:  Solving for k, Initial residual = 0.0111808, Final residual = 5.90493e-07, No Iterations 4
ExecutionTime = 0.35 s  ClockTime = 0 s

Courant Number mean: 0.0798538 max: 1.0563
Interface Courant Number mean: 0.00498075 max: 0.718169
deltaT = 0.00174689
Time = 0.134278

PIMPLE: iteration 1
smoothSolver:  Solving for alpha.water, Initial residual = 0.00295077, Final residual = 1.02745e-10, No Iterations 3
Phase-1 volume fraction = 0.130194  Min(alpha.water) = -4.75202e-08  Max(alpha.water) = 1
MULES: Correcting alpha.water
MULES: Correcting alpha.water
Phase-1 volume fraction = 0.130194  Min(alpha.water) = -3.76374e-07  Max(alpha.water) = 1
DICPCG:  Solving for p_rgh, Initial residual = 0.0103533, Final residual = 0.00036334, No Iterations 1
time step continuity errors : sum local = 0.000126361, global = -3.25794e-07, cumulative = 8.91416e-05
DICPCG:  Solving for p_rgh, Initial residual = 0.000429646, Final residual = 1.59732e-05, No Iterations 13
time step continuity errors : sum local = 5.50258e-06, global = 1.08129e-06, cumulative = 9.02229e-05
DICPCG:  Solving for p_rgh, Initial residual = 8.65816e-05, Final residual = 7.57441e-08, No Iterations 49
time step continuity errors : sum local = 2.64026e-08, global = -1.06158e-10, cumulative = 9.02228e-05
smoothSolver:  Solving for epsilon, Initial residual = 0.004284, Final residual = 5.17291e-07, No Iterations 3
smoothSolver:  Solving for k, Initial residual = 0.0100685, Final residual = 3.17189e-07, No Iterations 4
ExecutionTime = 0.36 s  ClockTime = 0 s

Courant Number mean: 0.072547 max: 0.979037
Interface Courant Number mean: 0.00499679 max: 0.658088
deltaT = 0.00174689
Time = 0.136025

PIMPLE: iteration 1
smoothSolver:  Solving for alpha.water, Initial residual = 0.00298696, Final residual = 1.12612e-10, No Iterations 3
Phase-1 volume fraction = 0.130194  Min(alpha.water) = -4.5855e-08  Max(alpha.water) = 1
MULES: Correcting alpha.water
MULES: Correcting alpha.water
Phase-1 volume fraction = 0.130194  Min(alpha.water) = -3.60218e-07  Max(alpha.water) = 1
DICPCG:  Solving for p_rgh, Initial residual = 0.0109671, Final residual = 0.000416381, No Iterations 1
time step continuity errors : sum local = 0.000144523, global = -1.79691e-07, cumulative = 9.00431e-05
DICPCG:  Solving for p_rgh, Initial residual = 0.000487288, Final residual = 1.91628e-05, No Iterations 13
time step continuity errors : sum local = 6.58585e-06, global = 1.10522e-06, cumulative = 9.11483e-05
DICPCG:  Solving for p_rgh, Initial residual = 9.63836e-05, Final residual = 8.96995e-08, No Iterations 49
time step continuity errors : sum local = 3.12027e-08, global = 4.28154e-10, cumulative = 9.11488e-05
smoothSolver:  Solving for epsilon, Initial residual = 0.00432923, Final residual = 5.35476e-07, No Iterations 3
smoothSolver:  Solving for k, Initial residual = 0.0100746, Final residual = 3.28094e-07, No Iterations 4
ExecutionTime = 0.37 s  ClockTime = 0 s

Courant Number mean: 0.0732129 max: 1.0089
Interface Courant Number mean: 0.00503372 max: 0.789127
deltaT = 0.00174689
Time = 0.137772

PIMPLE: iteration 1
smoothSolver:  Solving for alpha.water, Initial residual = 0.00301706, Final residual = 1.22133e-10, No Iterations 3
Phase-1 volume fraction = 0.130194  Min(alpha.water) = -4.43064e-08  Max(alpha.water) = 1
MULES: Correcting alpha.water
MULES: Correcting alpha.water
Phase-1 volume fraction = 0.130194  Min(alpha.water) = -3.40318e-07  Max(alpha.water) = 1
DICPCG:  Solving for p_rgh, Initial residual = 0.0115822, Final residual = 0.00047279, No Iterations 1
time step continuity errors : sum local = 0.000163675, global = -1.83797e-07, cumulative = 9.0965e-05
DICPCG:  Solving for p_rgh, Initial residual = 0.000550755, Final residual = 2.17142e-05, No Iterations 13
time step continuity errors : sum local = 7.44042e-06, global = 1.29769e-06, cumulative = 9.22627e-05
DICPCG:  Solving for p_rgh, Initial residual = 0.000104355, Final residual = 9.93426e-08, No Iterations 49
time step continuity errors : sum local = 3.44553e-08, global = 2.36847e-10, cumulative = 9.22629e-05
smoothSolver:  Solving for epsilon, Initial residual = 0.00437539, Final residual = 5.53364e-07, No Iterations 3
smoothSolver:  Solving for k, Initial residual = 0.01008, Final residual = 3.39103e-07, No Iterations 4
ExecutionTime = 0.37 s  ClockTime = 0 s

Courant Number mean: 0.0738534 max: 1.03963
Interface Courant Number mean: 0.00508833 max: 0.80358
deltaT = 0.00174689
Time = 0.139519

PIMPLE: iteration 1
smoothSolver:  Solving for alpha.water, Initial residual = 0.00304096, Final residual = 1.296e-10, No Iterations 3
Phase-1 volume fraction = 0.130194  Min(alpha.water) = -4.26994e-08  Max(alpha.water) = 1
MULES: Correcting alpha.water
MULES: Correcting alpha.water
Phase-1 volume fraction = 0.130194  Min(alpha.water) = -4.1126e-07  Max(alpha.water) = 1.00001
DICPCG:  Solving for p_rgh, Initial residual = 0.0124425, Final residual = 0.000552238, No Iterations 1
time step continuity errors : sum local = 0.000190533, global = -2.28574e-07, cumulative = 9.20343e-05
DICPCG:  Solving for p_rgh, Initial residual = 0.000638729, Final residual = 3.16577e-05, No Iterations 12
time step continuity errors : sum local = 1.08071e-05, global = 1.52213e-06, cumulative = 9.35565e-05
DICPCG:  Solving for p_rgh, Initial residual = 0.000120558, Final residual = 7.88947e-08, No Iterations 50
time step continuity errors : sum local = 2.72654e-08, global = -7.1887e-10, cumulative = 9.35557e-05
smoothSolver:  Solving for epsilon, Initial residual = 0.00441267, Final residual = 5.69096e-07, No Iterations 3
smoothSolver:  Solving for k, Initial residual = 0.0100822, Final residual = 3.50074e-07, No Iterations 4
ExecutionTime = 0.38 s  ClockTime = 0 s

Courant Number mean: 0.0744599 max: 1.06996
Interface Courant Number mean: 0.0049255 max: 0.813532
deltaT = 0.00174689
Time = 0.141266

PIMPLE: iteration 1
smoothSolver:  Solving for alpha.water, Initial residual = 0.0030763, Final residual = 1.37092e-10, No Iterations 3
Phase-1 volume fraction = 0.130194  Min(alpha.water) = -4.10218e-08  Max(alpha.water) = 1
MULES: Correcting alpha.water
MULES: Correcting alpha.water
Phase-1 volume fraction = 0.130194  Min(alpha.water) = -4.90741e-07  Max(alpha.water) = 1.00001
DICPCG:  Solving for p_rgh, Initial residual = 0.0118472, Final residual = 0.000224276, No Iterations 2
time step continuity errors : sum local = 7.71706e-05, global = -2.83067e-07, cumulative = 9.32727e-05
DICPCG:  Solving for p_rgh, Initial residual = 0.000276516, Final residual = 1.18052e-05, No Iterations 14
time step continuity errors : sum local = 4.02868e-06, global = 1.10529e-06, cumulative = 9.4378e-05
DICPCG:  Solving for p_rgh, Initial residual = 5.3694e-05, Final residual = 8.78626e-08, No Iterations 49
time step continuity errors : sum local = 3.0347e-08, global = -1.06986e-09, cumulative = 9.43769e-05
smoothSolver:  Solving for epsilon, Initial residual = 0.00444974, Final residual = 5.82987e-07, No Iterations 3
smoothSolver:  Solving for k, Initial residual = 0.0100932, Final residual = 3.61127e-07, No Iterations 4
ExecutionTime = 0.39 s  ClockTime = 0 s

Courant Number mean: 0.0750427 max: 1.09746
Interface Courant Number mean: 0.0051987 max: 0.934799
deltaT = 0.00174689
Time = 0.143012

PIMPLE: iteration 1
smoothSolver:  Solving for alpha.water, Initial residual = 0.00311288, Final residual = 1.46914e-10, No Iterations 3
Phase-1 volume fraction = 0.130194  Min(alpha.water) = -3.92599e-08  Max(alpha.water) = 1
MULES: Correcting alpha.water
MULES: Correcting alpha.water
Phase-1 volume fraction = 0.130194  Min(alpha.water) = -5.76338e-07  Max(alpha.water) = 1
DICPCG:  Solving for p_rgh, Initial residual = 0.0114094, Final residual = 0.000259962, No Iterations 2
time step continuity errors : sum local = 8.97104e-05, global = -2.08764e-07, cumulative = 9.41681e-05
DICPCG:  Solving for p_rgh, Initial residual = 0.000311798, Final residual = 1.29905e-05, No Iterations 14
time step continuity errors : sum local = 4.45689e-06, global = 1.18523e-06, cumulative = 9.53534e-05
DICPCG:  Solving for p_rgh, Initial residual = 5.84853e-05, Final residual = 9.61279e-08, No Iterations 49
time step continuity errors : sum local = 3.3392e-08, global = -1.61362e-09, cumulative = 9.53518e-05
smoothSolver:  Solving for epsilon, Initial residual = 0.00448928, Final residual = 5.93849e-07, No Iterations 3
smoothSolver:  Solving for k, Initial residual = 0.0101104, Final residual = 3.7177e-07, No Iterations 4
ExecutionTime = 0.4 s  ClockTime = 0 s

Courant Number mean: 0.0756129 max: 1.11999
Interface Courant Number mean: 0.00509047 max: 0.938982
deltaT = 0.00174689
Time = 0.144759

PIMPLE: iteration 1
smoothSolver:  Solving for alpha.water, Initial residual = 0.00314104, Final residual = 1.58389e-10, No Iterations 3
Phase-1 volume fraction = 0.130194  Min(alpha.water) = -3.74057e-08  Max(alpha.water) = 1
MULES: Correcting alpha.water
MULES: Correcting alpha.water
Phase-1 volume fraction = 0.130194  Min(alpha.water) = -6.04831e-07  Max(alpha.water) = 1
DICPCG:  Solving for p_rgh, Initial residual = 0.0143016, Final residual = 0.000345613, No Iterations 2
time step continuity errors : sum local = 0.000123205, global = -2.31386e-07, cumulative = 9.51204e-05
DICPCG:  Solving for p_rgh, Initial residual = 0.000411214, Final residual = 1.88089e-05, No Iterations 15
time step continuity errors : sum local = 6.647e-06, global = 1.19143e-06, cumulative = 9.63118e-05
DICPCG:  Solving for p_rgh, Initial residual = 7.55773e-05, Final residual = 8.86634e-08, No Iterations 50
time step continuity errors : sum local = 3.17292e-08, global = -2.50915e-09, cumulative = 9.63093e-05
smoothSolver:  Solving for epsilon, Initial residual = 0.00453738, Final residual = 6.02515e-07, No Iterations 3
smoothSolver:  Solving for k, Initial residual = 0.010119, Final residual = 3.82351e-07, No Iterations 4
ExecutionTime = 0.41 s  ClockTime = 0 s

Courant Number mean: 0.076183 max: 1.1362
Interface Courant Number mean: 0.00517469 max: 0.934852
deltaT = 0.00174689
Time = 0.146506

PIMPLE: iteration 1
smoothSolver:  Solving for alpha.water, Initial residual = 0.00316486, Final residual = 1.68395e-10, No Iterations 3
Phase-1 volume fraction = 0.130194  Min(alpha.water) = -3.552e-08  Max(alpha.water) = 1
MULES: Correcting alpha.water
MULES: Correcting alpha.water
Phase-1 volume fraction = 0.130194  Min(alpha.water) = -5.87296e-07  Max(alpha.water) = 1
DICPCG:  Solving for p_rgh, Initial residual = 0.013039, Final residual = 0.000339818, No Iterations 2
time step continuity errors : sum local = 0.000121822, global = -2.77877e-07, cumulative = 9.60314e-05
DICPCG:  Solving for p_rgh, Initial residual = 0.0003958, Final residual = 1.50859e-05, No Iterations 14
time step continuity errors : sum local = 5.37874e-06, global = 1.27242e-06, cumulative = 9.73038e-05
DICPCG:  Solving for p_rgh, Initial residual = 7.1051e-05, Final residual = 8.04169e-08, No Iterations 50
time step continuity errors : sum local = 2.90757e-08, global = -2.69606e-09, cumulative = 9.73011e-05
smoothSolver:  Solving for epsilon, Initial residual = 0.00457667, Final residual = 6.08716e-07, No Iterations 3
smoothSolver:  Solving for k, Initial residual = 0.0101975, Final residual = 3.92904e-07, No Iterations 4
ExecutionTime = 0.42 s  ClockTime = 0 s

Courant Number mean: 0.0767281 max: 1.13878
Interface Courant Number mean: 0.00520725 max: 0.910668
deltaT = 0.00174689
Time = 0.148253

PIMPLE: iteration 1
smoothSolver:  Solving for alpha.water, Initial residual = 0.00318363, Final residual = 1.76758e-10, No Iterations 3
Phase-1 volume fraction = 0.130194  Min(alpha.water) = -3.36236e-08  Max(alpha.water) = 1
MULES: Correcting alpha.water
MULES: Correcting alpha.water
Phase-1 volume fraction = 0.130194  Min(alpha.water) = -5.65147e-07  Max(alpha.water) = 1
DICPCG:  Solving for p_rgh, Initial residual = 0.0115252, Final residual = 0.000554027, No Iterations 1
time step continuity errors : sum local = 0.00020141, global = -2.62712e-07, cumulative = 9.70384e-05
DICPCG:  Solving for p_rgh, Initial residual = 0.00067031, Final residual = 3.23958e-05, No Iterations 13
time step continuity errors : sum local = 1.17142e-05, global = 1.24485e-06, cumulative = 9.82833e-05
DICPCG:  Solving for p_rgh, Initial residual = 0.000139708, Final residual = 7.27161e-08, No Iterations 51
time step continuity errors : sum local = 2.67589e-08, global = -2.3767e-09, cumulative = 9.82809e-05
smoothSolver:  Solving for epsilon, Initial residual = 0.00467711, Final residual = 6.15182e-07, No Iterations 3
smoothSolver:  Solving for k, Initial residual = 0.0102424, Final residual = 4.03219e-07, No Iterations 4
ExecutionTime = 0.42 s  ClockTime = 0 s

Courant Number mean: 0.0772524 max: 1.12796
Interface Courant Number mean: 0.0050859 max: 1.01465
deltaT = 0.00174689
Time = 0.15

PIMPLE: iteration 1
smoothSolver:  Solving for alpha.water, Initial residual = 0.00322842, Final residual = 1.84666e-10, No Iterations 3
Phase-1 volume fraction = 0.130194  Min(alpha.water) = -1.18917e-07  Max(alpha.water) = 1
MULES: Correcting alpha.water
MULES: Correcting alpha.water
Phase-1 volume fraction = 0.130194  Min(alpha.water) = -5.3293e-07  Max(alpha.water) = 1.00001
DICPCG:  Solving for p_rgh, Initial residual = 0.010539, Final residual = 0.000462237, No Iterations 1
time step continuity errors : sum local = 0.000170014, global = -2.49822e-07, cumulative = 9.80311e-05
DICPCG:  Solving for p_rgh, Initial residual = 0.000577885, Final residual = 2.27663e-05, No Iterations 14
time step continuity errors : sum local = 8.31975e-06, global = 7.64972e-07, cumulative = 9.8796e-05
DICPCG:  Solving for p_rgh, Initial residual = 0.000140266, Final residual = 9.93958e-08, No Iterations 49
time step continuity errors : sum local = 3.70264e-08, global = -4.45092e-09, cumulative = 9.87916e-05
smoothSolver:  Solving for epsilon, Initial residual = 0.00477358, Final residual = 6.21937e-07, No Iterations 3
smoothSolver:  Solving for k, Initial residual = 0.0104352, Final residual = 4.1436e-07, No Iterations 4
ExecutionTime = 0.44 s  ClockTime = 0 s

Courant Number mean: 0.0777713 max: 1.08895
Interface Courant Number mean: 0.00536297 max: 0.965298
deltaT = 0.0016129
Time = 0.151613

PIMPLE: iteration 1
smoothSolver:  Solving for alpha.water, Initial residual = 0.0030296, Final residual = 1.151e-10, No Iterations 3
Phase-1 volume fraction = 0.130194  Min(alpha.water) = -1.07081e-07  Max(alpha.water) = 1
MULES: Correcting alpha.water
MULES: Correcting alpha.water
Phase-1 volume fraction = 0.130194  Min(alpha.water) = -3.54713e-07  Max(alpha.water) = 1.00003
DICPCG:  Solving for p_rgh, Initial residual = 0.0105852, Final residual = 0.000465869, No Iterations 1
time step continuity errors : sum local = 0.000150406, global = -1.39057e-07, cumulative = 9.86525e-05
DICPCG:  Solving for p_rgh, Initial residual = 0.000571914, Final residual = 2.01397e-05, No Iterations 14
time step continuity errors : sum local = 6.45838e-06, global = 7.15287e-07, cumulative = 9.93678e-05
DICPCG:  Solving for p_rgh, Initial residual = 0.000123575, Final residual = 9.96687e-08, No Iterations 49
time step continuity errors : sum local = 3.25352e-08, global = -1.00378e-09, cumulative = 9.93668e-05
smoothSolver:  Solving for epsilon, Initial residual = 0.00453498, Final residual = 4.15685e-07, No Iterations 3
smoothSolver:  Solving for k, Initial residual = 0.00967659, Final residual = 2.57215e-07, No Iterations 4
ExecutionTime = 0.45 s  ClockTime = 0 s

Courant Number mean: 0.0722131 max: 0.966836
Interface Courant Number mean: 0.00512227 max: 0.966836
deltaT = 0.00166852
Time = 0.153281

PIMPLE: iteration 1
smoothSolver:  Solving for alpha.water, Initial residual = 0.0031891, Final residual = 1.48987e-10, No Iterations 3
Phase-1 volume fraction = 0.130194  Min(alpha.water) = -9.60507e-08  Max(alpha.water) = 1
MULES: Correcting alpha.water
MULES: Correcting alpha.water
Phase-1 volume fraction = 0.130194  Min(alpha.water) = -3.66716e-07  Max(alpha.water) = 1.00001
DICPCG:  Solving for p_rgh, Initial residual = 0.0116319, Final residual = 0.000340429, No Iterations 2
time step continuity errors : sum local = 0.000116922, global = -1.37976e-07, cumulative = 9.92288e-05
DICPCG:  Solving for p_rgh, Initial residual = 0.000452811, Final residual = 1.7965e-05, No Iterations 14
time step continuity errors : sum local = 6.14849e-06, global = 8.17889e-07, cumulative = 0.000100047
DICPCG:  Solving for p_rgh, Initial residual = 9.12678e-05, Final residual = 9.78942e-08, No Iterations 49
time step continuity errors : sum local = 3.41069e-08, global = -1.17504e-09, cumulative = 0.000100046
smoothSolver:  Solving for epsilon, Initial residual = 0.00484367, Final residual = 5.07388e-07, No Iterations 3
smoothSolver:  Solving for k, Initial residual = 0.0103124, Final residual = 3.30148e-07, No Iterations 4
ExecutionTime = 0.46 s  ClockTime = 0 s

Courant Number mean: 0.0750879 max: 0.933811
Interface Courant Number mean: 0.00535527 max: 0.933811
deltaT = 0.00179687
Time = 0.155078

PIMPLE: iteration 1
smoothSolver:  Solving for alpha.water, Initial residual = 0.00349041, Final residual = 2.49182e-10, No Iterations 3
Phase-1 volume fraction = 0.130194  Min(alpha.water) = -8.54399e-08  Max(alpha.water) = 1
MULES: Correcting alpha.water
MULES: Correcting alpha.water
Phase-1 volume fraction = 0.130194  Min(alpha.water) = -4.37746e-07  Max(alpha.water) = 1.00001
DICPCG:  Solving for p_rgh, Initial residual = 0.0110622, Final residual = 0.000371215, No Iterations 2
time step continuity errors : sum local = 0.000145919, global = -1.81405e-07, cumulative = 9.98641e-05
DICPCG:  Solving for p_rgh, Initial residual = 0.000518342, Final residual = 1.77019e-05, No Iterations 15
time step continuity errors : sum local = 6.94e-06, global = 8.18788e-07, cumulative = 0.000100683
DICPCG:  Solving for p_rgh, Initial residual = 0.000110779, Final residual = 9.06712e-08, No Iterations 49
time step continuity errors : sum local = 3.62819e-08, global = -2.39742e-09, cumulative = 0.000100681
smoothSolver:  Solving for epsilon, Initial residual = 0.00579362, Final residual = 7.72233e-07, No Iterations 3
smoothSolver:  Solving for k, Initial residual = 0.011354, Final residual = 5.44684e-07, No Iterations 4
ExecutionTime = 0.47 s  ClockTime = 0 s

Courant Number mean: 0.0812624 max: 1.00461
Interface Courant Number mean: 0.00613957 max: 1.00461
deltaT = 0.00179687
Time = 0.156875

PIMPLE: iteration 1
smoothSolver:  Solving for alpha.water, Initial residual = 0.00349328, Final residual = 2.59729e-10, No Iterations 3
Phase-1 volume fraction = 0.130194  Min(alpha.water) = -7.59607e-08  Max(alpha.water) = 1
MULES: Correcting alpha.water
MULES: Correcting alpha.water
Phase-1 volume fraction = 0.130194  Min(alpha.water) = -3.85573e-07  Max(alpha.water) = 1.00001
DICPCG:  Solving for p_rgh, Initial residual = 0.0116044, Final residual = 0.000353792, No Iterations 2
time step continuity errors : sum local = 0.000140719, global = -1.81988e-07, cumulative = 0.000100499
DICPCG:  Solving for p_rgh, Initial residual = 0.000491575, Final residual = 1.58434e-05, No Iterations 15
time step continuity errors : sum local = 6.28435e-06, global = 4.75141e-07, cumulative = 0.000100974
DICPCG:  Solving for p_rgh, Initial residual = 0.000104635, Final residual = 8.01997e-08, No Iterations 50
time step continuity errors : sum local = 3.24624e-08, global = -8.0805e-11, cumulative = 0.000100974
smoothSolver:  Solving for epsilon, Initial residual = 0.00585468, Final residual = 8.08698e-07, No Iterations 3
smoothSolver:  Solving for k, Initial residual = 0.0116295, Final residual = 5.65621e-07, No Iterations 4
ExecutionTime = 0.48 s  ClockTime = 0 s

Courant Number mean: 0.0816283 max: 1.00664
Interface Courant Number mean: 0.00613994 max: 0.98858
deltaT = 0.00179687
Time = 0.158672

PIMPLE: iteration 1
smoothSolver:  Solving for alpha.water, Initial residual = 0.00349462, Final residual = 2.68276e-10, No Iterations 3
Phase-1 volume fraction = 0.130194  Min(alpha.water) = -6.74929e-08  Max(alpha.water) = 1
MULES: Correcting alpha.water
MULES: Correcting alpha.water
Phase-1 volume fraction = 0.130194  Min(alpha.water) = -3.28596e-07  Max(alpha.water) = 1.00001
DICPCG:  Solving for p_rgh, Initial residual = 0.0116428, Final residual = 0.000345604, No Iterations 2
time step continuity errors : sum local = 0.000139113, global = -1.04552e-07, cumulative = 0.000100869
DICPCG:  Solving for p_rgh, Initial residual = 0.000459004, Final residual = 1.46269e-05, No Iterations 15
time step continuity errors : sum local = 5.8747e-06, global = 9.16714e-07, cumulative = 0.000101786
DICPCG:  Solving for p_rgh, Initial residual = 8.83737e-05, Final residual = 7.54628e-08, No Iterations 50
time step continuity errors : sum local = 3.09418e-08, global = 2.85606e-11, cumulative = 0.000101786
smoothSolver:  Solving for epsilon, Initial residual = 0.00602526, Final residual = 8.63217e-07, No Iterations 3
smoothSolver:  Solving for k, Initial residual = 0.0118486, Final residual = 5.86725e-07, No Iterations 4
ExecutionTime = 0.48 s  ClockTime = 0 s

Courant Number mean: 0.081971 max: 1.00776
Interface Courant Number mean: 0.00643164 max: 1.00776
deltaT = 0.00179687
Time = 0.160469

PIMPLE: iteration 1
smoothSolver:  Solving for alpha.water, Initial residual = 0.00353604, Final residual = 2.76789e-10, No Iterations 3
Phase-1 volume fraction = 0.130194  Min(alpha.water) = -5.99311e-08  Max(alpha.water) = 1
MULES: Correcting alpha.water
MULES: Correcting alpha.water
Phase-1 volume fraction = 0.130194  Min(alpha.water) = -3.37451e-07  Max(alpha.water) = 1
DICPCG:  Solving for p_rgh, Initial residual = 0.0138247, Final residual = 0.000377926, No Iterations 2
time step continuity errors : sum local = 0.000157656, global = -2.27843e-07, cumulative = 0.000101558
DICPCG:  Solving for p_rgh, Initial residual = 0.000495994, Final residual = 1.96071e-05, No Iterations 15
time step continuity errors : sum local = 8.13703e-06, global = 1.55788e-06, cumulative = 0.000103116
DICPCG:  Solving for p_rgh, Initial residual = 0.000100583, Final residual = 7.23507e-08, No Iterations 51
time step continuity errors : sum local = 3.06759e-08, global = -1.1404e-10, cumulative = 0.000103116
smoothSolver:  Solving for epsilon, Initial residual = 0.00624766, Final residual = 9.1964e-07, No Iterations 3
smoothSolver:  Solving for k, Initial residual = 0.0121789, Final residual = 6.04584e-07, No Iterations 4
ExecutionTime = 0.49 s  ClockTime = 0 s

Courant Number mean: 0.0822819 max: 0.992238
Interface Courant Number mean: 0.00676025 max: 0.992238
deltaT = 0.00179687
Time = 0.162266

PIMPLE: iteration 1
smoothSolver:  Solving for alpha.water, Initial residual = 0.00352175, Final residual = 2.8475e-10, No Iterations 3
Phase-1 volume fraction = 0.130194  Min(alpha.water) = -5.31855e-08  Max(alpha.water) = 1
MULES: Correcting alpha.water
MULES: Correcting alpha.water
Phase-1 volume fraction = 0.130194  Min(alpha.water) = -1.63416e-05  Max(alpha.water) = 1
DICPCG:  Solving for p_rgh, Initial residual = 0.0124481, Final residual = 0.000343112, No Iterations 2
time step continuity errors : sum local = 0.000145435, global = -3.89956e-07, cumulative = 0.000102726
DICPCG:  Solving for p_rgh, Initial residual = 0.000455389, Final residual = 1.74433e-05, No Iterations 15
time step continuity errors : sum local = 7.36968e-06, global = 7.068e-07, cumulative = 0.000103433
DICPCG:  Solving for p_rgh, Initial residual = 9.15885e-05, Final residual = 9.17874e-08, No Iterations 50
time step continuity errors : sum local = 3.95916e-08, global = 2.63482e-10, cumulative = 0.000103433
smoothSolver:  Solving for epsilon, Initial residual = 0.00674573, Final residual = 9.94855e-07, No Iterations 3
smoothSolver:  Solving for k, Initial residual = 0.0124556, Final residual = 6.26236e-07, No Iterations 4
ExecutionTime = 0.5 s  ClockTime = 0 s

Courant Number mean: 0.082535 max: 0.970605
Interface Courant Number mean: 0.00681956 max: 0.970605
deltaT = 0.00188671
Time = 0.164152

PIMPLE: iteration 1
smoothSolver:  Solving for alpha.water, Initial residual = 0.00374536, Final residual = 3.93878e-10, No Iterations 3
Phase-1 volume fraction = 0.130194  Min(alpha.water) = -4.69313e-08  Max(alpha.water) = 1
MULES: Correcting alpha.water
MULES: Correcting alpha.water
Phase-1 volume fraction = 0.130194  Min(alpha.water) = -3.24769e-05  Max(alpha.water) = 1
DICPCG:  Solving for p_rgh, Initial residual = 0.0106269, Final residual = 0.000291635, No Iterations 2
time step continuity errors : sum local = 0.000136621, global = -2.37214e-07, cumulative = 0.000103196
DICPCG:  Solving for p_rgh, Initial residual = 0.00042258, Final residual = 1.9023e-05, No Iterations 15
time step continuity errors : sum local = 8.88841e-06, global = 5.00304e-07, cumulative = 0.000103696
DICPCG:  Solving for p_rgh, Initial residual = 9.95969e-05, Final residual = 9.05834e-08, No Iterations 50
time step continuity errors : sum local = 4.3345e-08, global = 2.18477e-10, cumulative = 0.000103696
smoothSolver:  Solving for epsilon, Initial residual = 0.00773386, Final residual = 1.11834e-07, No Iterations 4
smoothSolver:  Solving for k, Initial residual = 0.0134927, Final residual = 8.7924e-07, No Iterations 4
ExecutionTime = 0.5 s  ClockTime = 0 s

Courant Number mean: 0.0869235 max: 1.01564
Interface Courant Number mean: 0.00814964 max: 1.01564
deltaT = 0.00188671
Time = 0.166039

PIMPLE: iteration 1
smoothSolver:  Solving for alpha.water, Initial residual = 0.00384583, Final residual = 4.03832e-10, No Iterations 3
Phase-1 volume fraction = 0.130194  Min(alpha.water) = -4.14126e-08  Max(alpha.water) = 1
MULES: Correcting alpha.water
MULES: Correcting alpha.water
Phase-1 volume fraction = 0.130194  Min(alpha.water) = -3.55654e-05  Max(alpha.water) = 1
DICPCG:  Solving for p_rgh, Initial residual = 0.0108626, Final residual = 0.000541674, No Iterations 1
time step continuity errors : sum local = 0.000257479, global = -2.31002e-07, cumulative = 0.000103465
DICPCG:  Solving for p_rgh, Initial residual = 0.000681326, Final residual = 2.00376e-05, No Iterations 15
time step continuity errors : sum local = 9.46247e-06, global = 5.8652e-07, cumulative = 0.000104052
DICPCG:  Solving for p_rgh, Initial residual = 0.0001594, Final residual = 7.83799e-08, No Iterations 50
time step continuity errors : sum local = 3.78414e-08, global = -2.4859e-09, cumulative = 0.000104049
smoothSolver:  Solving for epsilon, Initial residual = 0.00851077, Final residual = 1.15842e-07, No Iterations 4
smoothSolver:  Solving for k, Initial residual = 0.0138898, Final residual = 8.90993e-07, No Iterations 4
ExecutionTime = 0.51 s  ClockTime = 0 s

Courant Number mean: 0.0871502 max: 0.998217
Interface Courant Number mean: 0.00813927 max: 0.998217
deltaT = 0.00188671
Time = 0.167926

PIMPLE: iteration 1
smoothSolver:  Solving for alpha.water, Initial residual = 0.00390466, Final residual = 4.14606e-10, No Iterations 3
Phase-1 volume fraction = 0.130194  Min(alpha.water) = -3.65524e-08  Max(alpha.water) = 1
MULES: Correcting alpha.water
MULES: Correcting alpha.water
Phase-1 volume fraction = 0.130194  Min(alpha.water) = -2.74384e-05  Max(alpha.water) = 1.00008
DICPCG:  Solving for p_rgh, Initial residual = 0.0107145, Final residual = 0.000265443, No Iterations 2
time step continuity errors : sum local = 0.000127225, global = -2.41614e-07, cumulative = 0.000103808
DICPCG:  Solving for p_rgh, Initial residual = 0.000384638, Final residual = 1.6911e-05, No Iterations 15
time step continuity errors : sum local = 8.0761e-06, global = 2.74326e-07, cumulative = 0.000104082
DICPCG:  Solving for p_rgh, Initial residual = 9.82222e-05, Final residual = 8.65421e-08, No Iterations 50
time step continuity errors : sum local = 4.21992e-08, global = -6.88134e-10, cumulative = 0.000104081
smoothSolver:  Solving for epsilon, Initial residual = 0.00962944, Final residual = 1.15396e-07, No Iterations 4
smoothSolver:  Solving for k, Initial residual = 0.0142522, Final residual = 8.7641e-07, No Iterations 4
ExecutionTime = 0.52 s  ClockTime = 0 s

Courant Number mean: 0.0873682 max: 0.973161
Interface Courant Number mean: 0.0078265 max: 0.973161
deltaT = 0.00188671
Time = 0.169813

PIMPLE: iteration 1
smoothSolver:  Solving for alpha.water, Initial residual = 0.00390349, Final residual = 4.28718e-10, No Iterations 3
Phase-1 volume fraction = 0.130194  Min(alpha.water) = -3.22741e-08  Max(alpha.water) = 1
MULES: Correcting alpha.water
MULES: Correcting alpha.water
Phase-1 volume fraction = 0.130194  Min(alpha.water) = -2.01217e-05  Max(alpha.water) = 1.00002
DICPCG:  Solving for p_rgh, Initial residual = 0.0104939, Final residual = 0.000246081, No Iterations 2
time step continuity errors : sum local = 0.000119816, global = -1.74287e-07, cumulative = 0.000103907
DICPCG:  Solving for p_rgh, Initial residual = 0.000348707, Final residual = 1.68849e-05, No Iterations 15
time step continuity errors : sum local = 8.18135e-06, global = 4.53801e-07, cumulative = 0.000104361
DICPCG:  Solving for p_rgh, Initial residual = 9.2747e-05, Final residual = 7.3781e-08, No Iterations 50
time step continuity errors : sum local = 3.63518e-08, global = -8.8645e-10, cumulative = 0.00010436
smoothSolver:  Solving for epsilon, Initial residual = 0.0104031, Final residual = 1.10431e-07, No Iterations 4
smoothSolver:  Solving for k, Initial residual = 0.0143195, Final residual = 8.41545e-07, No Iterations 4
ExecutionTime = 0.53 s  ClockTime = 0 s

Courant Number mean: 0.0875723 max: 0.966844
Interface Courant Number mean: 0.0077388 max: 0.966844
deltaT = 0.00201249
Time = 0.171825

PIMPLE: iteration 1
smoothSolver:  Solving for alpha.water, Initial residual = 0.00421964, Final residual = 6.6286e-10, No Iterations 3
Phase-1 volume fraction = 0.130194  Min(alpha.water) = -2.82906e-08  Max(alpha.water) = 1
MULES: Correcting alpha.water
MULES: Correcting alpha.water
Phase-1 volume fraction = 0.130194  Min(alpha.water) = -1.90428e-05  Max(alpha.water) = 1.00001
DICPCG:  Solving for p_rgh, Initial residual = 0.0105615, Final residual = 0.000247519, No Iterations 2
time step continuity errors : sum local = 0.000135232, global = -2.66846e-07, cumulative = 0.000104093
DICPCG:  Solving for p_rgh, Initial residual = 0.000360253, Final residual = 1.6742e-05, No Iterations 15
time step continuity errors : sum local = 9.09173e-06, global = 6.72803e-07, cumulative = 0.000104766
DICPCG:  Solving for p_rgh, Initial residual = 9.43979e-05, Final residual = 9.86368e-08, No Iterations 49
[...]
DICPCG:  Solving for p_rgh, Initial residual = 0.000165611, Final residual = 8.22745e-08, No Iterations 45
time step continuity errors : sum local = 9.18255e-08, global = 6.86532e-09, cumulative = 0.00298276
smoothSolver:  Solving for epsilon, Initial residual = 0.0138403, Final residual = 1.28509e-07, No Iterations 4
smoothSolver:  Solving for k, Initial residual = 0.00805453, Final residual = 3.91661e-07, No Iterations 4
ExecutionTime = 3.11 s  ClockTime = 3 s

Courant Number mean: 0.155843 max: 1.00911
Interface Courant Number mean: 0.0381167 max: 0.785704
deltaT = 0.00454545
Time = 0.927273

PIMPLE: iteration 1
smoothSolver:  Solving for alpha.water, Initial residual = 0.00631447, Final residual = 8.17448e-09, No Iterations 3
Phase-1 volume fraction = 0.129402  Min(alpha.water) = -3.49035e-10  Max(alpha.water) = 1
MULES: Correcting alpha.water
MULES: Correcting alpha.water
Phase-1 volume fraction = 0.129402  Min(alpha.water) = -4.0648e-06  Max(alpha.water) = 1
DICPCG:  Solving for p_rgh, Initial residual = 0.0175512, Final residual = 0.000555788, No Iterations 2
time step continuity errors : sum local = 0.000620854, global = -3.795e-07, cumulative = 0.00298239
DICPCG:  Solving for p_rgh, Initial residual = 0.000687938, Final residual = 3.33921e-05, No Iterations 9
time step continuity errors : sum local = 3.73307e-05, global = 3.93423e-07, cumulative = 0.00298278
DICPCG:  Solving for p_rgh, Initial residual = 0.000166168, Final residual = 9.23311e-08, No Iterations 45
time step continuity errors : sum local = 1.03237e-07, global = 4.48391e-09, cumulative = 0.00298278
smoothSolver:  Solving for epsilon, Initial residual = 0.013764, Final residual = 1.28709e-07, No Iterations 4
smoothSolver:  Solving for k, Initial residual = 0.00793377, Final residual = 3.80149e-07, No Iterations 4
ExecutionTime = 3.11 s  ClockTime = 3 s

Courant Number mean: 0.155094 max: 0.993133
Interface Courant Number mean: 0.0376377 max: 0.771349
deltaT = 0.00454545
Time = 0.931818

PIMPLE: iteration 1
smoothSolver:  Solving for alpha.water, Initial residual = 0.00629012, Final residual = 8.04581e-09, No Iterations 3
Phase-1 volume fraction = 0.129402  Min(alpha.water) = -3.15292e-10  Max(alpha.water) = 1
MULES: Correcting alpha.water
MULES: Correcting alpha.water
Phase-1 volume fraction = 0.129402  Min(alpha.water) = -1.1872e-05  Max(alpha.water) = 1
DICPCG:  Solving for p_rgh, Initial residual = 0.0166221, Final residual = 0.00052535, No Iterations 2
time step continuity errors : sum local = 0.000589422, global = 9.74027e-09, cumulative = 0.00298279
DICPCG:  Solving for p_rgh, Initial residual = 0.000658118, Final residual = 3.07399e-05, No Iterations 9
time step continuity errors : sum local = 3.45434e-05, global = 3.56109e-08, cumulative = 0.00298283
DICPCG:  Solving for p_rgh, Initial residual = 0.000156574, Final residual = 8.32831e-08, No Iterations 45
time step continuity errors : sum local = 9.35549e-08, global = 5.27792e-09, cumulative = 0.00298283
smoothSolver:  Solving for epsilon, Initial residual = 0.0136502, Final residual = 1.30589e-07, No Iterations 4
smoothSolver:  Solving for k, Initial residual = 0.00785459, Final residual = 3.6329e-07, No Iterations 4
ExecutionTime = 3.12 s  ClockTime = 3 s

Courant Number mean: 0.154115 max: 0.973064
Interface Courant Number mean: 0.03737 max: 0.757397
deltaT = 0.00454545
Time = 0.936364

PIMPLE: iteration 1
smoothSolver:  Solving for alpha.water, Initial residual = 0.00626998, Final residual = 8.01659e-09, No Iterations 3
Phase-1 volume fraction = 0.129402  Min(alpha.water) = -2.55735e-10  Max(alpha.water) = 1
MULES: Correcting alpha.water
MULES: Correcting alpha.water
Phase-1 volume fraction = 0.129402  Min(alpha.water) = -2.19752e-05  Max(alpha.water) = 1
DICPCG:  Solving for p_rgh, Initial residual = 0.0161821, Final residual = 0.000492345, No Iterations 2
time step continuity errors : sum local = 0.000554867, global = 1.91055e-07, cumulative = 0.00298302
DICPCG:  Solving for p_rgh, Initial residual = 0.000611544, Final residual = 2.60588e-05, No Iterations 10
time step continuity errors : sum local = 2.94191e-05, global = 5.01273e-07, cumulative = 0.00298353
DICPCG:  Solving for p_rgh, Initial residual = 0.000146004, Final residual = 9.01897e-08, No Iterations 44
time step continuity errors : sum local = 1.01798e-07, global = 8.7206e-09, cumulative = 0.00298353
smoothSolver:  Solving for epsilon, Initial residual = 0.0135899, Final residual = 1.33714e-07, No Iterations 4
smoothSolver:  Solving for k, Initial residual = 0.00776583, Final residual = 3.45712e-07, No Iterations 4
ExecutionTime = 3.13 s  ClockTime = 3 s

Courant Number mean: 0.153 max: 0.946765
Interface Courant Number mean: 0.0369762 max: 0.744227
deltaT = 0.00454545
Time = 0.940909

PIMPLE: iteration 1
smoothSolver:  Solving for alpha.water, Initial residual = 0.00622095, Final residual = 7.87458e-09, No Iterations 3
Phase-1 volume fraction = 0.129402  Min(alpha.water) = -9.26861e-09  Max(alpha.water) = 1
MULES: Correcting alpha.water
MULES: Correcting alpha.water
Phase-1 volume fraction = 0.129402  Min(alpha.water) = -3.37424e-05  Max(alpha.water) = 1
DICPCG:  Solving for p_rgh, Initial residual = 0.0160553, Final residual = 0.000457052, No Iterations 2
time step continuity errors : sum local = 0.000516981, global = 4.38482e-09, cumulative = 0.00298354
DICPCG:  Solving for p_rgh, Initial residual = 0.000572909, Final residual = 2.81527e-05, No Iterations 9
time step continuity errors : sum local = 3.18754e-05, global = 3.68955e-07, cumulative = 0.00298391
DICPCG:  Solving for p_rgh, Initial residual = 0.000143718, Final residual = 8.79042e-08, No Iterations 44
time step continuity errors : sum local = 9.94526e-08, global = 8.97738e-09, cumulative = 0.00298392
smoothSolver:  Solving for epsilon, Initial residual = 0.0135365, Final residual = 1.35564e-07, No Iterations 4
smoothSolver:  Solving for k, Initial residual = 0.00763594, Final residual = 3.28476e-07, No Iterations 4
ExecutionTime = 3.14 s  ClockTime = 3 s

Courant Number mean: 0.151906 max: 0.914724
Interface Courant Number mean: 0.0362953 max: 0.732407
deltaT = 0.00454545
Time = 0.945455

PIMPLE: iteration 1
smoothSolver:  Solving for alpha.water, Initial residual = 0.00614215, Final residual = 7.59482e-09, No Iterations 3
Phase-1 volume fraction = 0.129402  Min(alpha.water) = -6.66947e-09  Max(alpha.water) = 1
MULES: Correcting alpha.water
MULES: Correcting alpha.water
Phase-1 volume fraction = 0.129402  Min(alpha.water) = -3.37618e-05  Max(alpha.water) = 1
DICPCG:  Solving for p_rgh, Initial residual = 0.0161542, Final residual = 0.000442448, No Iterations 2
time step continuity errors : sum local = 0.000500537, global = -4.2635e-08, cumulative = 0.00298387
DICPCG:  Solving for p_rgh, Initial residual = 0.000557584, Final residual = 2.47476e-05, No Iterations 9
time step continuity errors : sum local = 2.79934e-05, global = 3.08127e-07, cumulative = 0.00298418
DICPCG:  Solving for p_rgh, Initial residual = 0.000134894, Final residual = 9.07241e-08, No Iterations 43
time step continuity errors : sum local = 1.02504e-07, global = 5.72159e-09, cumulative = 0.00298419
smoothSolver:  Solving for epsilon, Initial residual = 0.0135289, Final residual = 1.37394e-07, No Iterations 4
smoothSolver:  Solving for k, Initial residual = 0.0075687, Final residual = 3.08586e-07, No Iterations 4
ExecutionTime = 3.14 s  ClockTime = 3 s

Courant Number mean: 0.150808 max: 0.876306
Interface Courant Number mean: 0.0362658 max: 0.720991
deltaT = 0.00454545
Time = 0.95

PIMPLE: iteration 1
smoothSolver:  Solving for alpha.water, Initial residual = 0.00609966, Final residual = 7.45146e-09, No Iterations 3
Phase-1 volume fraction = 0.129402  Min(alpha.water) = -4.69418e-09  Max(alpha.water) = 1
MULES: Correcting alpha.water
MULES: Correcting alpha.water
Phase-1 volume fraction = 0.129402  Min(alpha.water) = -2.54559e-05  Max(alpha.water) = 1
DICPCG:  Solving for p_rgh, Initial residual = 0.0156552, Final residual = 0.000435005, No Iterations 2
time step continuity errors : sum local = 0.000490101, global = 1.61509e-07, cumulative = 0.00298435
DICPCG:  Solving for p_rgh, Initial residual = 0.000544208, Final residual = 2.34837e-05, No Iterations 9
time step continuity errors : sum local = 2.64673e-05, global = 4.44159e-07, cumulative = 0.00298479
DICPCG:  Solving for p_rgh, Initial residual = 0.000133448, Final residual = 8.60367e-08, No Iterations 43
time step continuity errors : sum local = 9.68833e-08, global = 4.90784e-09, cumulative = 0.0029848
smoothSolver:  Solving for epsilon, Initial residual = 0.0134399, Final residual = 1.39787e-07, No Iterations 4
smoothSolver:  Solving for k, Initial residual = 0.00747285, Final residual = 2.85993e-07, No Iterations 4
ExecutionTime = 3.16 s  ClockTime = 3 s

Courant Number mean: 0.149616 max: 0.833123
Interface Courant Number mean: 0.0357504 max: 0.708153
deltaT = 0.005
Time = 0.955

PIMPLE: iteration 1
smoothSolver:  Solving for alpha.water, Initial residual = 0.00664953, Final residual = 1.95448e-10, No Iterations 4
Phase-1 volume fraction = 0.129402  Min(alpha.water) = -2.96643e-09  Max(alpha.water) = 1
MULES: Correcting alpha.water
MULES: Correcting alpha.water
Phase-1 volume fraction = 0.129402  Min(alpha.water) = -3.64937e-05  Max(alpha.water) = 1
DICPCG:  Solving for p_rgh, Initial residual = 0.015754, Final residual = 0.00046135, No Iterations 2
time step continuity errors : sum local = 0.000597583, global = -1.05171e-07, cumulative = 0.00298469
DICPCG:  Solving for p_rgh, Initial residual = 0.000581991, Final residual = 2.63469e-05, No Iterations 9
time step continuity errors : sum local = 3.41248e-05, global = 4.90769e-07, cumulative = 0.00298518
DICPCG:  Solving for p_rgh, Initial residual = 0.000151605, Final residual = 7.25391e-08, No Iterations 44
time step continuity errors : sum local = 9.39458e-08, global = 5.20472e-09, cumulative = 0.00298519
smoothSolver:  Solving for epsilon, Initial residual = 0.0145908, Final residual = 2.29551e-07, No Iterations 4
smoothSolver:  Solving for k, Initial residual = 0.0080633, Final residual = 4.15976e-07, No Iterations 4
ExecutionTime = 3.17 s  ClockTime = 3 s

Courant Number mean: 0.16308 max: 0.862304
Interface Courant Number mean: 0.0393434 max: 0.763583
deltaT = 0.005625
Time = 0.960625

PIMPLE: iteration 1
smoothSolver:  Solving for alpha.water, Initial residual = 0.00741146, Final residual = 4.09309e-10, No Iterations 4
Phase-1 volume fraction = 0.129402  Min(alpha.water) = -1.25728e-09  Max(alpha.water) = 1
MULES: Correcting alpha.water
MULES: Correcting alpha.water
Phase-1 volume fraction = 0.129402  Min(alpha.water) = -3.96039e-05  Max(alpha.water) = 1
DICPCG:  Solving for p_rgh, Initial residual = 0.0157836, Final residual = 0.00053016, No Iterations 2
time step continuity errors : sum local = 0.000817182, global = -2.53164e-07, cumulative = 0.00298494
DICPCG:  Solving for p_rgh, Initial residual = 0.000666187, Final residual = 2.83625e-05, No Iterations 9
time step continuity errors : sum local = 4.36832e-05, global = 1.08194e-06, cumulative = 0.00298602
DICPCG:  Solving for p_rgh, Initial residual = 0.000177653, Final residual = 6.61773e-08, No Iterations 44
time step continuity errors : sum local = 1.01926e-07, global = 2.38476e-09, cumulative = 0.00298602
smoothSolver:  Solving for epsilon, Initial residual = 0.0161246, Final residual = 4.52382e-07, No Iterations 4
smoothSolver:  Solving for k, Initial residual = 0.00881619, Final residual = 7.06524e-07, No Iterations 4
ExecutionTime = 3.17 s  ClockTime = 3 s

Courant Number mean: 0.181679 max: 0.905497
Interface Courant Number mean: 0.0447124 max: 0.857177
deltaT = 0.0065625
Time = 0.967188

PIMPLE: iteration 1
smoothSolver:  Solving for alpha.water, Initial residual = 0.00856116, Final residual = 1.13428e-09, No Iterations 4
Phase-1 volume fraction = 0.129402  Min(alpha.water) = -4.18774e-11  Max(alpha.water) = 1
MULES: Correcting alpha.water
MULES: Correcting alpha.water
Phase-1 volume fraction = 0.129402  Min(alpha.water) = -1.562e-05  Max(alpha.water) = 1
DICPCG:  Solving for p_rgh, Initial residual = 0.0179856, Final residual = 0.000631124, No Iterations 2
time step continuity errors : sum local = 0.00120995, global = -5.52265e-07, cumulative = 0.00298547
DICPCG:  Solving for p_rgh, Initial residual = 0.00079163, Final residual = 3.22145e-05, No Iterations 10
time step continuity errors : sum local = 6.16638e-05, global = 1.96398e-06, cumulative = 0.00298743
DICPCG:  Solving for p_rgh, Initial residual = 0.0002204, Final residual = 8.33013e-08, No Iterations 44
time step continuity errors : sum local = 1.59359e-07, global = -8.40172e-09, cumulative = 0.00298742
smoothSolver:  Solving for epsilon, Initial residual = 0.0183544, Final residual = 1.66196e-07, No Iterations 5
smoothSolver:  Solving for k, Initial residual = 0.0099317, Final residual = 3.06486e-07, No Iterations 5
ExecutionTime = 3.18 s  ClockTime = 3 s

Courant Number mean: 0.209814 max: 0.97941
Interface Courant Number mean: 0.0526 max: 0.965984
deltaT = 0.0065625
Time = 0.97375

PIMPLE: iteration 1
smoothSolver:  Solving for alpha.water, Initial residual = 0.00838806, Final residual = 1.1618e-09, No Iterations 4
Phase-1 volume fraction = 0.129402  Min(alpha.water) = -2.5531e-11  Max(alpha.water) = 1
MULES: Correcting alpha.water
MULES: Correcting alpha.water
Phase-1 volume fraction = 0.129402  Min(alpha.water) = -0.000170957  Max(alpha.water) = 1
DICPCG:  Solving for p_rgh, Initial residual = 0.0185093, Final residual = 0.000616761, No Iterations 2
time step continuity errors : sum local = 0.00118041, global = -1.01134e-06, cumulative = 0.00298641
DICPCG:  Solving for p_rgh, Initial residual = 0.000772586, Final residual = 3.58701e-05, No Iterations 9
time step continuity errors : sum local = 6.86051e-05, global = 1.41225e-06, cumulative = 0.00298782
DICPCG:  Solving for p_rgh, Initial residual = 0.000214118, Final residual = 9.82184e-08, No Iterations 43
time step continuity errors : sum local = 1.87667e-07, global = -1.33817e-08, cumulative = 0.00298781
smoothSolver:  Solving for epsilon, Initial residual = 0.0180299, Final residual = 1.91349e-07, No Iterations 5
smoothSolver:  Solving for k, Initial residual = 0.00965169, Final residual = 3.0677e-07, No Iterations 5
ExecutionTime = 3.19 s  ClockTime = 3 s

Courant Number mean: 0.207752 max: 0.973797
Interface Courant Number mean: 0.0523555 max: 0.944984
deltaT = 0.0065625
Time = 0.980313

PIMPLE: iteration 1
smoothSolver:  Solving for alpha.water, Initial residual = 0.00823415, Final residual = 1.15823e-09, No Iterations 4
Phase-1 volume fraction = 0.129402  Min(alpha.water) = -2.5596e-07  Max(alpha.water) = 1
MULES: Correcting alpha.water
MULES: Correcting alpha.water
Phase-1 volume fraction = 0.129402  Min(alpha.water) = -3.59911e-05  Max(alpha.water) = 1
DICPCG:  Solving for p_rgh, Initial residual = 0.0184371, Final residual = 0.000579932, No Iterations 2
time step continuity errors : sum local = 0.0011104, global = -5.70721e-07, cumulative = 0.00298724
DICPCG:  Solving for p_rgh, Initial residual = 0.000725818, Final residual = 2.9972e-05, No Iterations 10
time step continuity errors : sum local = 5.7352e-05, global = 1.91239e-06, cumulative = 0.00298915
DICPCG:  Solving for p_rgh, Initial residual = 0.000202421, Final residual = 7.69777e-08, No Iterations 44
time step continuity errors : sum local = 1.47073e-07, global = 6.67647e-09, cumulative = 0.00298916
smoothSolver:  Solving for epsilon, Initial residual = 0.0175512, Final residual = 2.31604e-07, No Iterations 5
smoothSolver:  Solving for k, Initial residual = 0.00931786, Final residual = 3.19516e-07, No Iterations 5
ExecutionTime = 3.2 s  ClockTime = 3 s

Courant Number mean: 0.205853 max: 0.967048
Interface Courant Number mean: 0.0510815 max: 0.926119
deltaT = 0.0065625
Time = 0.986875

PIMPLE: iteration 1
smoothSolver:  Solving for alpha.water, Initial residual = 0.00808937, Final residual = 1.21941e-09, No Iterations 4
Phase-1 volume fraction = 0.129402  Min(alpha.water) = -1.43922e-07  Max(alpha.water) = 1
MULES: Correcting alpha.water
MULES: Correcting alpha.water
Phase-1 volume fraction = 0.129402  Min(alpha.water) = -4.50878e-05  Max(alpha.water) = 1
DICPCG:  Solving for p_rgh, Initial residual = 0.0177517, Final residual = 0.000549203, No Iterations 2
time step continuity errors : sum local = 0.00106953, global = -8.55519e-08, cumulative = 0.00298907
DICPCG:  Solving for p_rgh, Initial residual = 0.000693594, Final residual = 2.81726e-05, No Iterations 10
time step continuity errors : sum local = 5.48775e-05, global = 2.0432e-06, cumulative = 0.00299112
DICPCG:  Solving for p_rgh, Initial residual = 0.000189838, Final residual = 8.44929e-08, No Iterations 44
time step continuity errors : sum local = 1.64541e-07, global = 9.86563e-09, cumulative = 0.00299113
smoothSolver:  Solving for epsilon, Initial residual = 0.0170496, Final residual = 2.77411e-07, No Iterations 5
smoothSolver:  Solving for k, Initial residual = 0.00898471, Final residual = 3.74892e-07, No Iterations 5
ExecutionTime = 3.21 s  ClockTime = 3 s

Courant Number mean: 0.204301 max: 0.945206
Interface Courant Number mean: 0.0515535 max: 0.877841
deltaT = 0.0065625
Time = 0.993437

PIMPLE: iteration 1
smoothSolver:  Solving for alpha.water, Initial residual = 0.00795118, Final residual = 1.25155e-09, No Iterations 4
Phase-1 volume fraction = 0.129402  Min(alpha.water) = -9.20674e-07  Max(alpha.water) = 1
MULES: Correcting alpha.water
MULES: Correcting alpha.water
Phase-1 volume fraction = 0.129402  Min(alpha.water) = -4.04914e-05  Max(alpha.water) = 1
DICPCG:  Solving for p_rgh, Initial residual = 0.0166654, Final residual = 0.00053468, No Iterations 2
time step continuity errors : sum local = 0.00105788, global = -7.17382e-07, cumulative = 0.00299041
DICPCG:  Solving for p_rgh, Initial residual = 0.000674063, Final residual = 2.58002e-05, No Iterations 10
time step continuity errors : sum local = 5.106e-05, global = 2.33935e-06, cumulative = 0.00299275
DICPCG:  Solving for p_rgh, Initial residual = 0.000180577, Final residual = 9.21169e-08, No Iterations 33
time step continuity errors : sum local = 1.8208e-07, global = 8.06649e-08, cumulative = 0.00299283
smoothSolver:  Solving for epsilon, Initial residual = 0.0164502, Final residual = 3.26774e-07, No Iterations 5
smoothSolver:  Solving for k, Initial residual = 0.00863968, Final residual = 4.66851e-07, No Iterations 5
ExecutionTime = 3.21 s  ClockTime = 3 s

Courant Number mean: 0.202992 max: 0.914631
Interface Courant Number mean: 0.0515518 max: 0.857861
deltaT = 0.0065625
Time = 1

PIMPLE: iteration 1
smoothSolver:  Solving for alpha.water, Initial residual = 0.0078397, Final residual = 1.26461e-09, No Iterations 4
Phase-1 volume fraction = 0.129402  Min(alpha.water) = -6.30308e-07  Max(alpha.water) = 1
MULES: Correcting alpha.water
MULES: Correcting alpha.water
Phase-1 volume fraction = 0.129402  Min(alpha.water) = -3.68488e-05  Max(alpha.water) = 1
DICPCG:  Solving for p_rgh, Initial residual = 0.0167491, Final residual = 0.000541023, No Iterations 2
time step continuity errors : sum local = 0.00107184, global = -1.07737e-06, cumulative = 0.00299175
DICPCG:  Solving for p_rgh, Initial residual = 0.000680432, Final residual = 2.61584e-05, No Iterations 10
time step continuity errors : sum local = 5.18676e-05, global = 1.89455e-06, cumulative = 0.00299365
DICPCG:  Solving for p_rgh, Initial residual = 0.000178631, Final residual = 9.30896e-08, No Iterations 33
time step continuity errors : sum local = 1.84622e-07, global = -8.38032e-08, cumulative = 0.00299356
smoothSolver:  Solving for epsilon, Initial residual = 0.0158408, Final residual = 3.6543e-07, No Iterations 5
smoothSolver:  Solving for k, Initial residual = 0.00833726, Final residual = 5.45089e-07, No Iterations 5
ExecutionTime = 3.23 s  ClockTime = 3 s

End

